Material: organic / (C16H14O3)n - polycarbonate / Zhang
Optical constants. X. Zhang, J. Qiu, X. Li, J. Zhao, L. Liu. Complex refractive indices measurements of polymers in visible and near-infrared bands, Appl. Opt. 59, 2337-2344 (2020)
Comments: Normal temperature and pressure. Manufacturer: Dedicated Plastic, China.
Specs: {"n_absolute": true, "wavelength_vacuum": false}
wavelength (um)	n	k
0.40	1.63389	1.12E-05
0.41	1.62840	2.28E-06
0.42	1.62320	6.31E-07
0.43	1.62005	3.55E-07
0.44	1.61707	2.88E-07
0.45	1.61465	2.63E-07
0.46	1.61201	2.43E-07
0.47	1.60943	2.39E-07
0.48	1.60687	2.49E-07
0.49	1.60478	2.64E-07
0.50	1.60251	2.95E-07
0.51	1.60077	2.97E-07
0.52	1.59934	3.16E-07
0.53	1.59764	3.39E-07
0.54	1.59623	3.85E-07
0.55	1.59509	4.08E-07
0.56	1.59344	4.27E-07
0.57	1.59261	4.45E-07
0.58	1.59082	4.81E-07
0.59	1.59004	4.80E-07
0.60	1.58873	4.80E-07
0.61	1.58829	4.37E-07
0.62	1.58727	3.95E-07
0.63	1.58643	3.48E-07
0.64	1.58577	3.03E-07
0.65	1.58465	2.36E-07
0.66	1.58430	1.76E-07
0.67	1.58373	1.26E-07
0.68	1.58261	9.54E-08
0.69	1.58213	7.08E-08
0.70	1.58210	5.22E-08
0.71	1.58141	6.91E-08
0.72	1.58121	3.53E-08
0.73	1.58070	2.76E-08
0.74	1.57989	4.45E-08
0.75	1.57935	3.44E-08
0.76	1.57908	3.53E-08
0.77	1.57824	1.20E-08
0.78	1.57701	5.95E-09
0.79	1.57772	1.97E-09
0.80	1.57645	6.27E-09
0.81	1.57623	1.17E-08
0.82	1.57659	6.81E-08
0.83	1.57667	2.71E-07
0.84	1.57567	2.73E-08
0.85	1.57589	1.06E-07
0.86	1.57555	1.35E-07
0.87	1.57515	3.83E-07
0.88	1.57494	4.08E-07
0.89	1.57455	4.16E-07
0.90	1.57426	4.58E-07
0.91	1.57389	5.42E-07
0.92	1.57364	5.37E-07
0.93	1.57344	3.94E-07
0.94	1.57314	4.59E-07
0.95	1.57290	4.84E-07
0.96	1.57268	4.63E-07
0.97	1.57244	5.09E-07
0.98	1.57214	5.03E-07
0.99	1.57191	4.39E-07
1.00	1.57178	4.66E-07
1.01	1.57161	5.75E-07
1.02	1.57148	2.95E-07
1.03	1.56957	3.41E-07
1.04	1.56916	3.52E-07
1.05	1.56937	4.08E-07
1.06	1.56886	3.18E-07
1.07	1.56861	3.71E-07
1.08	1.56899	3.26E-07
1.09	1.56870	4.19E-07
1.10	1.56865	5.78E-07
1.11	1.56830	1.09E-06
1.12	1.56795	2.25E-06
1.13	1.56744	5.67E-06
1.14	1.56749	6.18E-06
1.15	1.56721	3.62E-06
1.16	1.56693	2.37E-06
1.17	1.56699	2.88E-06
1.18	1.56718	3.90E-06
1.19	1.56690	5.08E-06
1.20	1.56685	1.79E-06
1.21	1.56657	1.08E-06
1.22	1.56695	8.53E-07
1.23	1.56620	6.91E-07
1.24	1.56629	6.39E-07
1.25	1.56627	5.78E-07
1.26	1.56630	4.47E-07
1.27	1.56655	4.41E-07
1.28	1.56617	5.21E-07
1.29	1.56578	6.74E-07
1.30	1.56585	6.77E-07
1.31	1.56526	9.02E-07
1.32	1.56493	1.09E-06
1.33	1.56492	1.26E-06
1.34	1.56505	1.56E-06
1.35	1.56392	2.61E-06
1.36	1.56431	4.39E-06
1.37	1.56490	5.02E-06
1.38	1.56461	6.25E-06
1.39	1.56421	6.31E-06
1.40	1.56445	6.30E-06
1.41	1.56412	6.36E-06
1.42	1.56444	4.92E-06
1.43	1.56402	5.01E-06
1.44	1.56424	4.34E-06
1.45	1.56437	4.10E-06
1.46	1.56390	3.99E-06
1.47	1.56424	3.81E-06
1.48	1.56429	1.77E-06
1.49	1.56369	2.98E-06
1.50	1.56382	2.35E-06
1.51	1.56323	2.00E-06
1.52	1.56322	1.81E-06
1.53	1.56359	1.62E-06
1.54	1.56327	1.64E-06
1.55	1.56330	1.75E-06
1.56	1.56296	1.77E-06
1.57	1.56293	1.88E-06
1.58	1.56268	2.34E-06
1.59	1.56185	2.89E-06
1.60	1.56301	4.09E-06
1.61	1.56208	5.99E-06
1.62	1.56231	1.10E-05
1.63	1.56294	1.56E-05
1.64	1.56223	2.53E-05
1.65	1.56066	4.53E-05
1.66	1.56120	8.08E-05
1.67	1.56056	1.15E-04
1.68	1.56189	6.85E-05
1.69	1.56204	7.27E-05
1.70	1.56157	5.86E-05
1.71	1.56224	3.32E-05
1.72	1.56075	3.15E-05
1.73	1.56173	3.53E-05
1.74	1.56045	3.29E-05
1.75	1.56077	1.96E-05
1.76	1.56156	2.00E-05
1.77	1.56322	2.18E-05
1.78	1.56103	1.44E-05
1.79	1.56213	1.37E-05
1.80	1.56223	1.46E-05
1.81	1.56313	1.49E-05
1.82	1.56115	1.54E-05
1.83	1.55994	1.66E-05
1.84	1.56040	1.47E-05
1.85	1.55955	1.50E-05
1.86	1.56210	1.44E-05
1.87	1.56080	1.57E-05
1.88	1.56066	1.60E-05
1.89	1.56037	2.11E-05
1.90	1.56051	3.58E-05
1.91	1.56051	2.26E-05
1.92	1.55903	1.57E-05
1.93	1.56167	1.55E-05
1.94	1.55875	1.49E-05
1.95	1.56094	1.35E-05
1.96	1.56057	1.33E-05
1.97	1.56030	1.39E-05
1.98	1.56013	1.36E-05
1.99	1.55991	1.41E-05
2.00	1.56142	1.53E-05
