Material: main / AlSb / Adachi
Optical constants. S. Adachi. Optical dispersion relations for AlSb from E=0 to 6.0 eV, J. Appl. Phys. 67, 6427-6431 (1990)[Calculation script (Python)]
wavelength (um)	n	k
2.0664e-01	1.0648e+00	2.2263e+00
2.0767e-01	1.0695e+00	2.2381e+00
2.0870e-01	1.0743e+00	2.2501e+00
2.0975e-01	1.0791e+00	2.2625e+00
2.1081e-01	1.0841e+00	2.2753e+00
2.1188e-01	1.0892e+00	2.2884e+00
2.1295e-01	1.0943e+00	2.3019e+00
2.1404e-01	1.0996e+00	2.3159e+00
2.1515e-01	1.1051e+00	2.3303e+00
2.1626e-01	1.1108e+00	2.3453e+00
2.1738e-01	1.1167e+00	2.3608e+00
2.1852e-01	1.1230e+00	2.3770e+00
2.1967e-01	1.1296e+00	2.3938e+00
2.2083e-01	1.1367e+00	2.4114e+00
2.2200e-01	1.1444e+00	2.4298e+00
2.2318e-01	1.1529e+00	2.4491e+00
2.2438e-01	1.1625e+00	2.4694e+00
2.2559e-01	1.1735e+00	2.4905e+00
2.2681e-01	1.1864e+00	2.5126e+00
2.2805e-01	1.2017e+00	2.5352e+00
2.2930e-01	1.2203e+00	2.5578e+00
2.3057e-01	1.2428e+00	2.5794e+00
2.3184e-01	1.2696e+00	2.5979e+00
2.3314e-01	1.3001e+00	2.6110e+00
2.3444e-01	1.3316e+00	2.6157e+00
2.3577e-01	1.3593e+00	2.6114e+00
2.3710e-01	1.3783e+00	2.6007e+00
2.3845e-01	1.3862e+00	2.5890e+00
2.3982e-01	1.3848e+00	2.5820e+00
2.4120e-01	1.3779e+00	2.5823e+00
2.4260e-01	1.3693e+00	2.5899e+00
2.4402e-01	1.3613e+00	2.6037e+00
2.4545e-01	1.3551e+00	2.6221e+00
2.4690e-01	1.3510e+00	2.6439e+00
2.4837e-01	1.3490e+00	2.6682e+00
2.4985e-01	1.3489e+00	2.6945e+00
2.5135e-01	1.3504e+00	2.7225e+00
2.5287e-01	1.3535e+00	2.7519e+00
2.5441e-01	1.3579e+00	2.7826e+00
2.5597e-01	1.3636e+00	2.8148e+00
2.5755e-01	1.3705e+00	2.8484e+00
2.5914e-01	1.3786e+00	2.8835e+00
2.6076e-01	1.3879e+00	2.9203e+00
2.6239e-01	1.3984e+00	2.9588e+00
2.6405e-01	1.4102e+00	2.9992e+00
2.6573e-01	1.4235e+00	3.0416e+00
2.6743e-01	1.4384e+00	3.0864e+00
2.6915e-01	1.4552e+00	3.1336e+00
2.7089e-01	1.4740e+00	3.1836e+00
2.7266e-01	1.4954e+00	3.2365e+00
2.7445e-01	1.5196e+00	3.2927e+00
2.7626e-01	1.5473e+00	3.3524e+00
2.7810e-01	1.5792e+00	3.4160e+00
2.7996e-01	1.6161e+00	3.4836e+00
2.8185e-01	1.6593e+00	3.5555e+00
2.8376e-01	1.7101e+00	3.6319e+00
2.8570e-01	1.7703e+00	3.7126e+00
2.8766e-01	1.8423e+00	3.7970e+00
2.8966e-01	1.9289e+00	3.8842e+00
2.9168e-01	2.0332e+00	3.9720e+00
2.9372e-01	2.1589e+00	4.0565e+00
2.9580e-01	2.3092e+00	4.1318e+00
2.9791e-01	2.4855e+00	4.1888e+00
3.0005e-01	2.6855e+00	4.2159e+00
3.0222e-01	2.9000e+00	4.2006e+00
3.0442e-01	3.1118e+00	4.1346e+00
3.0665e-01	3.2987e+00	4.0200e+00
3.0891e-01	3.4415e+00	3.8717e+00
3.1121e-01	3.5326e+00	3.7132e+00
3.1354e-01	3.5781e+00	3.5664e+00
3.1591e-01	3.5926e+00	3.4449e+00
3.1832e-01	3.5922e+00	3.3523e+00
3.2076e-01	3.5899e+00	3.2854e+00
3.2324e-01	3.5939e+00	3.2372e+00
3.2576e-01	3.6080e+00	3.1999e+00
3.2831e-01	3.6324e+00	3.1665e+00
3.3091e-01	3.6648e+00	3.1315e+00
3.3355e-01	3.7015e+00	3.0915e+00
3.3623e-01	3.7382e+00	3.0453e+00
3.3896e-01	3.7709e+00	2.9934e+00
3.4173e-01	3.7964e+00	2.9381e+00
3.4454e-01	3.8126e+00	2.8828e+00
3.4741e-01	3.8191e+00	2.8312e+00
3.5032e-01	3.8167e+00	2.7874e+00
3.5328e-01	3.8075e+00	2.7549e+00
3.5629e-01	3.7949e+00	2.7373e+00
3.5935e-01	3.7836e+00	2.7370e+00
3.6246e-01	3.7799e+00	2.7561e+00
3.6563e-01	3.7924e+00	2.7945e+00
3.6886e-01	3.8320e+00	2.8486e+00
3.7214e-01	3.9106e+00	2.9081e+00
3.7548e-01	4.0365e+00	2.9528e+00
3.7888e-01	4.2048e+00	2.9534e+00
3.8235e-01	4.3878e+00	2.8837e+00
3.8588e-01	4.5404e+00	2.7414e+00
3.8947e-01	4.6265e+00	2.5573e+00
3.9313e-01	4.6402e+00	2.3748e+00
3.9686e-01	4.5998e+00	2.2253e+00
4.0066e-01	4.5301e+00	2.1221e+00
4.0454e-01	4.4521e+00	2.0663e+00
4.0849e-01	4.3820e+00	2.0550e+00
4.1252e-01	4.3339e+00	2.0833e+00
4.1663e-01	4.3224e+00	2.1439e+00
4.2082e-01	4.3638e+00	2.2230e+00
4.2510e-01	4.4698e+00	2.2950e+00
4.2947e-01	4.6357e+00	2.3279e+00
4.3392e-01	4.8466e+00	2.2875e+00
4.3847e-01	5.0505e+00	2.1500e+00
4.4312e-01	5.1938e+00	1.9386e+00
4.4786e-01	5.2561e+00	1.7021e+00
4.5271e-01	5.2505e+00	1.4804e+00
4.5767e-01	5.2019e+00	1.2915e+00
4.6273e-01	5.1314e+00	1.1376e+00
4.6791e-01	5.0528e+00	1.0140e+00
4.7320e-01	4.9738e+00	9.1435e-01
4.7862e-01	4.8984e+00	8.3293e-01
4.8416e-01	4.8282e+00	7.6505e-01
4.8983e-01	4.7639e+00	7.0710e-01
4.9564e-01	4.7053e+00	6.5630e-01
5.0158e-01	4.6523e+00	6.1046e-01
5.0767e-01	4.6043e+00	5.6778e-01
5.1391e-01	4.5608e+00	5.2671e-01
5.2030e-01	4.5213e+00	4.8567e-01
5.2686e-01	4.4850e+00	4.4283e-01
5.3358e-01	4.4506e+00	3.9548e-01
5.4048e-01	4.4138e+00	3.3839e-01
5.4756e-01	4.3514e+00	2.7082e-01
5.5482e-01	4.2724e+00	2.3967e-01
5.6228e-01	4.2094e+00	2.2310e-01
5.6994e-01	4.1554e+00	2.1010e-01
5.7782e-01	4.1071e+00	1.9886e-01
5.8591e-01	4.0630e+00	1.8878e-01
5.9424e-01	4.0221e+00	1.7960e-01
6.0281e-01	3.9839e+00	1.7116e-01
6.1162e-01	3.9481e+00	1.6333e-01
6.2070e-01	3.9142e+00	1.5605e-01
6.3005e-01	3.8821e+00	1.4924e-01
6.3969e-01	3.8515e+00	1.4287e-01
6.4963e-01	3.8224e+00	1.3688e-01
6.5988e-01	3.7947e+00	1.3125e-01
6.7046e-01	3.7681e+00	1.2594e-01
6.8138e-01	3.7426e+00	1.2094e-01
6.9267e-01	3.7182e+00	1.1622e-01
7.0433e-01	3.6947e+00	1.1176e-01
7.1640e-01	3.6721e+00	1.0756e-01
7.2889e-01	3.6504e+00	1.0360e-01
7.4182e-01	3.6295e+00	9.9859e-02
7.5521e-01	3.6094e+00	9.6338e-02
7.6910e-01	3.5900e+00	9.3017e-02
7.8351e-01	3.5713e+00	8.9872e-02
7.9847e-01	3.5534e+00	8.6879e-02
8.1402e-01	3.5360e+00	8.4020e-02
8.3018e-01	3.5193e+00	8.1281e-02
8.4699e-01	3.5032e+00	7.8655e-02
8.6450e-01	3.4876e+00	7.6131e-02
8.8275e-01	3.4726e+00	7.3704e-02
9.0179e-01	3.4580e+00	7.1367e-02
9.2166e-01	3.4440e+00	6.9113e-02
9.4243e-01	3.4304e+00	6.6939e-02
9.6416e-01	3.4172e+00	6.4839e-02
9.8691e-01	3.4045e+00	6.2808e-02
1.0108e+00	3.3922e+00	6.0844e-02
1.0358e+00	3.3803e+00	5.8941e-02
1.0621e+00	3.3688e+00	5.7096e-02
1.0898e+00	3.3576e+00	5.5306e-02
1.1190e+00	3.3468e+00	5.3569e-02
1.1497e+00	3.3364e+00	5.1881e-02
1.1822e+00	3.3263e+00	5.0239e-02
1.2166e+00	3.3165e+00	4.8641e-02
1.2531e+00	3.3070e+00	4.7085e-02
1.2918e+00	3.2979e+00	4.5569e-02
1.3329e+00	3.2890e+00	4.4090e-02
1.3768e+00	3.2804e+00	4.2647e-02
1.4237e+00	3.2721e+00	4.1238e-02
1.4739e+00	3.2641e+00	3.9860e-02
1.5277e+00	3.2564e+00	3.8513e-02
1.5857e+00	3.2489e+00	3.7194e-02
1.6482e+00	3.2417e+00	3.5903e-02
1.7158e+00	3.2347e+00	3.4638e-02
1.7892e+00	3.2280e+00	3.3397e-02
1.8692e+00	3.2215e+00	3.2179e-02
1.9566e+00	3.2153e+00	3.0984e-02
2.0527e+00	3.2092e+00	2.9809e-02
2.1586e+00	3.2034e+00	2.8654e-02
2.2761e+00	3.1979e+00	2.7518e-02
2.4071e+00	3.1925e+00	2.6399e-02
2.5541e+00	3.1874e+00	2.5297e-02
2.7203e+00	3.1825e+00	2.4211e-02
2.9095e+00	3.1778e+00	2.3139e-02
3.1271e+00	3.1733e+00	2.2082e-02
3.3798e+00	3.1690e+00	2.1037e-02
3.6770e+00	3.1649e+00	2.0005e-02
4.0315e+00	3.1609e+00	1.8985e-02
4.4616e+00	3.1572e+00	1.7975e-02
4.9945e+00	3.1537e+00	1.6975e-02
5.6719e+00	3.1504e+00	1.5984e-02
6.5619e+00	3.1472e+00	1.5001e-02
7.7832e+00	3.1443e+00	1.4027e-02
9.5631e+00	3.1415e+00	1.3059e-02
1.2398e+01	3.1390e+00	1.2098e-02
