Material: main / AlSb / Djurisic
Optical constants. A. B. Djurišić, E. H. Li, D. Rakić, M. L. Majewski. Modeling the optical properties of AlSb, GaSb, and InSb, Appl. Phys. A 70, 29-32 (2000)[Calculation script (Python)]
wavelength (um)	n	k
2.0664e-01	9.6314e-01	2.3253e+00
2.0767e-01	9.6747e-01	2.3383e+00
2.0870e-01	9.7182e-01	2.3517e+00
2.0975e-01	9.7620e-01	2.3655e+00
2.1081e-01	9.8063e-01	2.3798e+00
2.1188e-01	9.8514e-01	2.3945e+00
2.1295e-01	9.8977e-01	2.4098e+00
2.1404e-01	9.9459e-01	2.4258e+00
2.1515e-01	9.9967e-01	2.4424e+00
2.1626e-01	1.0051e+00	2.4598e+00
2.1738e-01	1.0111e+00	2.4781e+00
2.1852e-01	1.0179e+00	2.4974e+00
2.1967e-01	1.0256e+00	2.5176e+00
2.2083e-01	1.0347e+00	2.5388e+00
2.2200e-01	1.0455e+00	2.5608e+00
2.2318e-01	1.0585e+00	2.5834e+00
2.2438e-01	1.0742e+00	2.6062e+00
2.2559e-01	1.0928e+00	2.6283e+00
2.2681e-01	1.1144e+00	2.6489e+00
2.2805e-01	1.1386e+00	2.6670e+00
2.2930e-01	1.1646e+00	2.6816e+00
2.3057e-01	1.1915e+00	2.6923e+00
2.3184e-01	1.2178e+00	2.6989e+00
2.3314e-01	1.2425e+00	2.7018e+00
2.3444e-01	1.2647e+00	2.7016e+00
2.3577e-01	1.2836e+00	2.6990e+00
2.3710e-01	1.2989e+00	2.6947e+00
2.3845e-01	1.3098e+00	2.6895e+00
2.3982e-01	1.3160e+00	2.6846e+00
2.4120e-01	1.3174e+00	2.6813e+00
2.4260e-01	1.3143e+00	2.6812e+00
2.4402e-01	1.3077e+00	2.6856e+00
2.4545e-01	1.2992e+00	2.6954e+00
2.4690e-01	1.2903e+00	2.7108e+00
2.4837e-01	1.2824e+00	2.7313e+00
2.4985e-01	1.2765e+00	2.7561e+00
2.5135e-01	1.2731e+00	2.7845e+00
2.5287e-01	1.2723e+00	2.8157e+00
2.5441e-01	1.2741e+00	2.8492e+00
2.5597e-01	1.2783e+00	2.8846e+00
2.5755e-01	1.2849e+00	2.9217e+00
2.5914e-01	1.2936e+00	2.9605e+00
2.6076e-01	1.3046e+00	3.0009e+00
2.6239e-01	1.3178e+00	3.0431e+00
2.6405e-01	1.3333e+00	3.0871e+00
2.6573e-01	1.3513e+00	3.1331e+00
2.6743e-01	1.3720e+00	3.1810e+00
2.6915e-01	1.3957e+00	3.2312e+00
2.7089e-01	1.4229e+00	3.2836e+00
2.7266e-01	1.4538e+00	3.3382e+00
2.7445e-01	1.4891e+00	3.3952e+00
2.7626e-01	1.5294e+00	3.4545e+00
2.7810e-01	1.5754e+00	3.5159e+00
2.7996e-01	1.6279e+00	3.5792e+00
2.8185e-01	1.6878e+00	3.6441e+00
2.8376e-01	1.7562e+00	3.7099e+00
2.8570e-01	1.8341e+00	3.7759e+00
2.8766e-01	1.9226e+00	3.8408e+00
2.8966e-01	2.0230e+00	3.9031e+00
2.9168e-01	2.1360e+00	3.9607e+00
2.9372e-01	2.2625e+00	4.0108e+00
2.9580e-01	2.4025e+00	4.0501e+00
2.9791e-01	2.5550e+00	4.0747e+00
3.0005e-01	2.7179e+00	4.0805e+00
3.0222e-01	2.8874e+00	4.0636e+00
3.0442e-01	3.0580e+00	4.0210e+00
3.0665e-01	3.2225e+00	3.9516e+00
3.0891e-01	3.3734e+00	3.8569e+00
3.1121e-01	3.5039e+00	3.7415e+00
3.1354e-01	3.6090e+00	3.6121e+00
3.1591e-01	3.6866e+00	3.4766e+00
3.1832e-01	3.7377e+00	3.3431e+00
3.2076e-01	3.7656e+00	3.2179e+00
3.2324e-01	3.7751e+00	3.1057e+00
3.2576e-01	3.7717e+00	3.0089e+00
3.2831e-01	3.7603e+00	2.9282e+00
3.3091e-01	3.7454e+00	2.8630e+00
3.3355e-01	3.7305e+00	2.8118e+00
3.3623e-01	3.7182e+00	2.7726e+00
3.3896e-01	3.7103e+00	2.7434e+00
3.4173e-01	3.7081e+00	2.7220e+00
3.4454e-01	3.7121e+00	2.7065e+00
3.4741e-01	3.7227e+00	2.6950e+00
3.5032e-01	3.7397e+00	2.6861e+00
3.5328e-01	3.7631e+00	2.6784e+00
3.5629e-01	3.7924e+00	2.6708e+00
3.5935e-01	3.8274e+00	2.6623e+00
3.6246e-01	3.8676e+00	2.6522e+00
3.6563e-01	3.9125e+00	2.6395e+00
3.6886e-01	3.9617e+00	2.6237e+00
3.7214e-01	4.0147e+00	2.6038e+00
3.7548e-01	4.0704e+00	2.5794e+00
3.7888e-01	4.1277e+00	2.5499e+00
3.8235e-01	4.1851e+00	2.5160e+00
3.8588e-01	4.2423e+00	2.4794e+00
3.8947e-01	4.3007e+00	2.4410e+00
3.9313e-01	4.3617e+00	2.3999e+00
3.9686e-01	4.4258e+00	2.3548e+00
4.0066e-01	4.4926e+00	2.3042e+00
4.0454e-01	4.5617e+00	2.2470e+00
4.0849e-01	4.6323e+00	2.1821e+00
4.1252e-01	4.7032e+00	2.1083e+00
4.1663e-01	4.7733e+00	2.0246e+00
4.2082e-01	4.8403e+00	1.9296e+00
4.2510e-01	4.9015e+00	1.8226e+00
4.2947e-01	4.9530e+00	1.7038e+00
4.3392e-01	4.9904e+00	1.5749e+00
4.3847e-01	5.0101e+00	1.4402e+00
4.4312e-01	5.0105e+00	1.3058e+00
4.4786e-01	4.9933e+00	1.1779e+00
4.5271e-01	4.9626e+00	1.0604e+00
4.5767e-01	4.9233e+00	9.5487e-01
4.6273e-01	4.8789e+00	8.6084e-01
4.6791e-01	4.8322e+00	7.7699e-01
4.7320e-01	4.7846e+00	7.0184e-01
4.7862e-01	4.7370e+00	6.3410e-01
4.8416e-01	4.6897e+00	5.7273e-01
4.8983e-01	4.6431e+00	5.1693e-01
4.9564e-01	4.5973e+00	4.6609e-01
5.0158e-01	4.5523e+00	4.1972e-01
5.0767e-01	4.5081e+00	3.7745e-01
5.1391e-01	4.4649e+00	3.3893e-01
5.2030e-01	4.4227e+00	3.0387e-01
5.2686e-01	4.3816e+00	2.7203e-01
5.3358e-01	4.3415e+00	2.4325e-01
5.4048e-01	4.3025e+00	2.1709e-01
5.4756e-01	4.2646e+00	1.9345e-01
5.5482e-01	4.2279e+00	1.7216e-01
5.6228e-01	4.1923e+00	1.5300e-01
5.6994e-01	4.1579e+00	1.3580e-01
5.7782e-01	4.1247e+00	1.2038e-01
5.8591e-01	4.0926e+00	1.0658e-01
5.9424e-01	4.0616e+00	9.4244e-02
6.0281e-01	4.0317e+00	8.3245e-02
6.1162e-01	4.0029e+00	7.3450e-02
6.2070e-01	3.9751e+00	6.4738e-02
6.3005e-01	3.9483e+00	5.7001e-02
6.3969e-01	3.9225e+00	5.0138e-02
6.4963e-01	3.8976e+00	4.4059e-02
6.5988e-01	3.8737e+00	3.8680e-02
6.7046e-01	3.8506e+00	3.3926e-02
6.8138e-01	3.8283e+00	2.9729e-02
6.9267e-01	3.8068e+00	2.6027e-02
7.0433e-01	3.7862e+00	2.2764e-02
7.1640e-01	3.7662e+00	1.9892e-02
7.2889e-01	3.7470e+00	1.7366e-02
7.4182e-01	3.7285e+00	1.5146e-02
7.5521e-01	3.7106e+00	1.3197e-02
7.6910e-01	3.6933e+00	1.1486e-02
7.8351e-01	3.6767e+00	9.9872e-03
7.9847e-01	3.6606e+00	8.6743e-03
8.1402e-01	3.6451e+00	7.5254e-03
8.3018e-01	3.6302e+00	6.5210e-03
8.4699e-01	3.6157e+00	5.6437e-03
8.6450e-01	3.6018e+00	4.8783e-03
8.8275e-01	3.5884e+00	4.2110e-03
9.0179e-01	3.5754e+00	3.6300e-03
9.2166e-01	3.5629e+00	3.1247e-03
9.4243e-01	3.5508e+00	2.6857e-03
9.6416e-01	3.5391e+00	2.3048e-03
9.8691e-01	3.5278e+00	1.9748e-03
1.0108e+00	3.5170e+00	1.6892e-03
1.0358e+00	3.5065e+00	1.4424e-03
1.0621e+00	3.4964e+00	1.2295e-03
1.0898e+00	3.4866e+00	1.0461e-03
1.1190e+00	3.4772e+00	8.8838e-04
1.1497e+00	3.4682e+00	7.5295e-04
1.1822e+00	3.4594e+00	6.3687e-04
1.2166e+00	3.4510e+00	5.3757e-04
1.2531e+00	3.4429e+00	4.5277e-04
1.2918e+00	3.4352e+00	3.8050e-04
1.3329e+00	3.4277e+00	3.1904e-04
1.3768e+00	3.4205e+00	2.6686e-04
1.4237e+00	3.4136e+00	2.2268e-04
1.4739e+00	3.4070e+00	1.8533e-04
1.5277e+00	3.4007e+00	1.5384e-04
1.5857e+00	3.3946e+00	1.2736e-04
1.6482e+00	3.3888e+00	1.0513e-04
1.7158e+00	3.3833e+00	8.6522e-05
1.7892e+00	3.3780e+00	7.0986e-05
1.8692e+00	3.3729e+00	5.8050e-05
1.9566e+00	3.3682e+00	4.7308e-05
2.0527e+00	3.3636e+00	3.8413e-05
2.1586e+00	3.3593e+00	3.1070e-05
2.2761e+00	3.3552e+00	2.5028e-05
2.4071e+00	3.3514e+00	2.0071e-05
2.5541e+00	3.3478e+00	1.6019e-05
2.7203e+00	3.3444e+00	1.2718e-05
2.9095e+00	3.3413e+00	1.0040e-05
3.1271e+00	3.3383e+00	7.8761e-06
3.3798e+00	3.3356e+00	6.1348e-06
3.6770e+00	3.3331e+00	4.7401e-06
4.0315e+00	3.3308e+00	3.6288e-06
4.4616e+00	3.3288e+00	2.7481e-06
4.9945e+00	3.3269e+00	2.0544e-06
5.6719e+00	3.3253e+00	1.5117e-06
6.5619e+00	3.3239e+00	1.0902e-06
7.7832e+00	3.3227e+00	7.6574e-07
9.5631e+00	3.3216e+00	5.1843e-07
1.2398e+01	3.3208e+00	3.3214e-07
