Material: main / Cu / Rakic
Optical constants. A. D. Rakić, A. B. Djurišic, J. M. Elazar, and M. L. Majewski. Optical properties of metallic films for vertical-cavity optoelectronic devices, Appl. Opt. 37, 5271-5283 (1998)[Calculation script (Python)]
Comments: Fit of the experimental data from several sources to Brendel-Bormann (BB) model
wavelength (um)	n	k
2.0664e-01	1.3031e+00	1.6826e+00
2.0767e-01	1.3074e+00	1.6869e+00
2.0870e-01	1.3119e+00	1.6912e+00
2.0975e-01	1.3166e+00	1.6955e+00
2.1081e-01	1.3214e+00	1.6996e+00
2.1188e-01	1.3265e+00	1.7037e+00
2.1295e-01	1.3317e+00	1.7077e+00
2.1404e-01	1.3371e+00	1.7116e+00
2.1515e-01	1.3426e+00	1.7154e+00
2.1626e-01	1.3483e+00	1.7190e+00
2.1738e-01	1.3542e+00	1.7225e+00
2.1852e-01	1.3601e+00	1.7258e+00
2.1967e-01	1.3662e+00	1.7290e+00
2.2083e-01	1.3725e+00	1.7320e+00
2.2200e-01	1.3788e+00	1.7348e+00
2.2318e-01	1.3852e+00	1.7374e+00
2.2438e-01	1.3917e+00	1.7398e+00
2.2559e-01	1.3982e+00	1.7420e+00
2.2681e-01	1.4048e+00	1.7440e+00
2.2805e-01	1.4115e+00	1.7457e+00
2.2930e-01	1.4181e+00	1.7472e+00
2.3057e-01	1.4248e+00	1.7485e+00
2.3184e-01	1.4315e+00	1.7495e+00
2.3314e-01	1.4381e+00	1.7502e+00
2.3444e-01	1.4446e+00	1.7508e+00
2.3577e-01	1.4511e+00	1.7510e+00
2.3710e-01	1.4576e+00	1.7510e+00
2.3845e-01	1.4639e+00	1.7507e+00
2.3982e-01	1.4701e+00	1.7502e+00
2.4120e-01	1.4761e+00	1.7494e+00
2.4260e-01	1.4820e+00	1.7483e+00
2.4402e-01	1.4877e+00	1.7470e+00
2.4545e-01	1.4932e+00	1.7454e+00
2.4690e-01	1.4985e+00	1.7436e+00
2.4837e-01	1.5035e+00	1.7416e+00
2.4985e-01	1.5083e+00	1.7393e+00
2.5135e-01	1.5128e+00	1.7367e+00
2.5287e-01	1.5169e+00	1.7340e+00
2.5441e-01	1.5207e+00	1.7310e+00
2.5597e-01	1.5242e+00	1.7278e+00
2.5755e-01	1.5273e+00	1.7245e+00
2.5914e-01	1.5299e+00	1.7209e+00
2.6076e-01	1.5321e+00	1.7172e+00
2.6239e-01	1.5339e+00	1.7134e+00
2.6405e-01	1.5352e+00	1.7094e+00
2.6573e-01	1.5360e+00	1.7054e+00
2.6743e-01	1.5362e+00	1.7012e+00
2.6915e-01	1.5359e+00	1.6971e+00
2.7089e-01	1.5350e+00	1.6928e+00
2.7266e-01	1.5335e+00	1.6886e+00
2.7445e-01	1.5314e+00	1.6845e+00
2.7626e-01	1.5286e+00	1.6804e+00
2.7810e-01	1.5251e+00	1.6764e+00
2.7996e-01	1.5210e+00	1.6726e+00
2.8185e-01	1.5161e+00	1.6690e+00
2.8376e-01	1.5105e+00	1.6657e+00
2.8570e-01	1.5041e+00	1.6627e+00
2.8766e-01	1.4970e+00	1.6601e+00
2.8966e-01	1.4891e+00	1.6579e+00
2.9168e-01	1.4804e+00	1.6563e+00
2.9372e-01	1.4710e+00	1.6552e+00
2.9580e-01	1.4608e+00	1.6548e+00
2.9791e-01	1.4498e+00	1.6551e+00
3.0005e-01	1.4381e+00	1.6563e+00
3.0222e-01	1.4258e+00	1.6584e+00
3.0442e-01	1.4128e+00	1.6615e+00
3.0665e-01	1.3993e+00	1.6656e+00
3.0891e-01	1.3852e+00	1.6710e+00
3.1121e-01	1.3707e+00	1.6776e+00
3.1354e-01	1.3559e+00	1.6856e+00
3.1591e-01	1.3409e+00	1.6950e+00
3.1832e-01	1.3258e+00	1.7058e+00
3.2076e-01	1.3108e+00	1.7181e+00
3.2324e-01	1.2960e+00	1.7320e+00
3.2576e-01	1.2816e+00	1.7474e+00
3.2831e-01	1.2677e+00	1.7643e+00
3.3091e-01	1.2545e+00	1.7827e+00
3.3355e-01	1.2421e+00	1.8024e+00
3.3623e-01	1.2308e+00	1.8235e+00
3.3896e-01	1.2207e+00	1.8458e+00
3.4173e-01	1.2118e+00	1.8692e+00
3.4454e-01	1.2044e+00	1.8935e+00
3.4741e-01	1.1985e+00	1.9184e+00
3.5032e-01	1.1942e+00	1.9440e+00
3.5328e-01	1.1915e+00	1.9699e+00
3.5629e-01	1.1905e+00	1.9959e+00
3.5935e-01	1.1911e+00	2.0219e+00
3.6246e-01	1.1933e+00	2.0476e+00
3.6563e-01	1.1971e+00	2.0728e+00
3.6886e-01	1.2023e+00	2.0973e+00
3.7214e-01	1.2088e+00	2.1210e+00
3.7548e-01	1.2166e+00	2.1436e+00
3.7888e-01	1.2255e+00	2.1650e+00
3.8235e-01	1.2352e+00	2.1851e+00
3.8588e-01	1.2456e+00	2.2038e+00
3.8947e-01	1.2565e+00	2.2209e+00
3.9313e-01	1.2677e+00	2.2363e+00
3.9686e-01	1.2789e+00	2.2500e+00
4.0066e-01	1.2898e+00	2.2619e+00
4.0454e-01	1.3004e+00	2.2721e+00
4.0849e-01	1.3101e+00	2.2806e+00
4.1252e-01	1.3189e+00	2.2873e+00
4.1663e-01	1.3265e+00	2.2923e+00
4.2082e-01	1.3325e+00	2.2958e+00
4.2510e-01	1.3367e+00	2.2979e+00
4.2947e-01	1.3389e+00	2.2987e+00
4.3392e-01	1.3388e+00	2.2984e+00
4.3847e-01	1.3361e+00	2.2971e+00
4.4312e-01	1.3305e+00	2.2953e+00
4.4786e-01	1.3220e+00	2.2931e+00
4.5271e-01	1.3103e+00	2.2908e+00
4.5767e-01	1.2951e+00	2.2889e+00
4.6273e-01	1.2764e+00	2.2876e+00
4.6791e-01	1.2540e+00	2.2875e+00
4.7320e-01	1.2280e+00	2.2890e+00
4.7862e-01	1.1981e+00	2.2925e+00
4.8416e-01	1.1646e+00	2.2986e+00
4.8983e-01	1.1275e+00	2.3078e+00
4.9564e-01	1.0870e+00	2.3206e+00
5.0158e-01	1.0435e+00	2.3375e+00
5.0767e-01	9.9720e-01	2.3591e+00
5.1391e-01	9.4870e-01	2.3858e+00
5.2030e-01	8.9850e-01	2.4178e+00
5.2686e-01	8.4720e-01	2.4555e+00
5.3358e-01	7.9543e-01	2.4991e+00
5.4048e-01	7.4384e-01	2.5484e+00
5.4756e-01	6.9305e-01	2.6036e+00
5.5482e-01	6.4362e-01	2.6643e+00
5.6228e-01	5.9604e-01	2.7303e+00
5.6994e-01	5.5072e-01	2.8012e+00
5.7782e-01	5.0797e-01	2.8768e+00
5.8591e-01	4.6803e-01	2.9565e+00
5.9424e-01	4.3102e-01	3.0401e+00
6.0281e-01	3.9702e-01	3.1272e+00
6.1162e-01	3.6604e-01	3.2175e+00
6.2070e-01	3.3804e-01	3.3107e+00
6.3005e-01	3.1296e-01	3.4065e+00
6.3969e-01	2.9070e-01	3.5049e+00
6.4963e-01	2.7114e-01	3.6056e+00
6.5988e-01	2.5416e-01	3.7085e+00
6.7046e-01	2.3964e-01	3.8137e+00
6.8138e-01	2.2744e-01	3.9209e+00
6.9267e-01	2.1746e-01	4.0303e+00
7.0433e-01	2.0956e-01	4.1419e+00
7.1640e-01	2.0364e-01	4.2556e+00
7.2889e-01	1.9959e-01	4.3716e+00
7.4182e-01	1.9732e-01	4.4901e+00
7.5521e-01	1.9675e-01	4.6109e+00
7.6910e-01	1.9779e-01	4.7345e+00
7.8351e-01	2.0039e-01	4.8608e+00
7.9847e-01	2.0447e-01	4.9900e+00
8.1402e-01	2.0999e-01	5.1224e+00
8.3018e-01	2.1691e-01	5.2581e+00
8.4699e-01	2.2518e-01	5.3974e+00
8.6450e-01	2.3478e-01	5.5404e+00
8.8275e-01	2.4567e-01	5.6876e+00
9.0179e-01	2.5783e-01	5.8391e+00
9.2166e-01	2.7124e-01	5.9953e+00
9.4243e-01	2.8588e-01	6.1565e+00
9.6416e-01	3.0174e-01	6.3231e+00
9.8691e-01	3.1880e-01	6.4954e+00
1.0108e+00	3.3706e-01	6.6741e+00
1.0358e+00	3.5650e-01	6.8595e+00
1.0621e+00	3.7712e-01	7.0522e+00
1.0898e+00	3.9890e-01	7.2528e+00
1.1190e+00	4.2184e-01	7.4620e+00
1.1497e+00	4.4594e-01	7.6805e+00
1.1822e+00	4.7118e-01	7.9092e+00
1.2166e+00	4.9758e-01	8.1491e+00
1.2531e+00	5.2513e-01	8.4012e+00
1.2918e+00	5.5386e-01	8.6667e+00
1.3329e+00	5.8377e-01	8.9471e+00
1.3768e+00	6.1490e-01	9.2438e+00
1.4237e+00	6.4730e-01	9.5587e+00
1.4739e+00	6.8102e-01	9.8937e+00
1.5277e+00	7.1616e-01	1.0251e+01
1.5857e+00	7.5283e-01	1.0634e+01
1.6482e+00	7.9118e-01	1.1045e+01
1.7158e+00	8.3141e-01	1.1488e+01
1.7892e+00	8.7380e-01	1.1968e+01
1.8692e+00	9.1868e-01	1.2489e+01
1.9566e+00	9.6650e-01	1.3057e+01
2.0527e+00	1.0178e+00	1.3680e+01
2.1586e+00	1.0735e+00	1.4366e+01
2.2761e+00	1.1344e+00	1.5126e+01
2.4071e+00	1.2019e+00	1.5972e+01
2.5541e+00	1.2777e+00	1.6921e+01
2.7203e+00	1.3642e+00	1.7993e+01
2.9095e+00	1.4646e+00	1.9214e+01
3.1271e+00	1.5835e+00	2.0617e+01
3.3798e+00	1.7272e+00	2.2246e+01
3.6770e+00	1.9050e+00	2.4160e+01
4.0315e+00	2.1311e+00	2.6442e+01
4.4616e+00	2.4273e+00	2.9207e+01
4.9945e+00	2.8289e+00	3.2625e+01
5.6719e+00	3.3967e+00	3.6958e+01
6.5619e+00	4.2408e+00	4.2623e+01
7.7832e+00	5.5794e+00	5.0332e+01
9.5631e+00	7.8927e+00	6.1408e+01
1.2398e+01	1.2406e+01	7.8579e+01
