Material: main / W / Rakic
Optical constants. A. D. Rakić, A. B. Djurišic, J. M. Elazar, and M. L. Majewski. Optical properties of metallic films for vertical-cavity optoelectronic devices, Appl. Opt. 37, 5271-5283 (1998)[Calculation script (Python)]
Comments: Fit of the experimental data from several sources to Brendel-Bormann (BB) model
wavelength (um)	n	k
2.0664e-01	2.2670e+00	2.7525e+00
2.0767e-01	2.2803e+00	2.7519e+00
2.0870e-01	2.2936e+00	2.7511e+00
2.0975e-01	2.3068e+00	2.7503e+00
2.1081e-01	2.3200e+00	2.7493e+00
2.1188e-01	2.3333e+00	2.7483e+00
2.1295e-01	2.3464e+00	2.7472e+00
2.1404e-01	2.3596e+00	2.7460e+00
2.1515e-01	2.3728e+00	2.7447e+00
2.1626e-01	2.3859e+00	2.7434e+00
2.1738e-01	2.3990e+00	2.7419e+00
2.1852e-01	2.4120e+00	2.7404e+00
2.1967e-01	2.4251e+00	2.7388e+00
2.2083e-01	2.4381e+00	2.7371e+00
2.2200e-01	2.4510e+00	2.7353e+00
2.2318e-01	2.4640e+00	2.7334e+00
2.2438e-01	2.4769e+00	2.7314e+00
2.2559e-01	2.4897e+00	2.7294e+00
2.2681e-01	2.5025e+00	2.7273e+00
2.2805e-01	2.5153e+00	2.7251e+00
2.2930e-01	2.5280e+00	2.7228e+00
2.3057e-01	2.5407e+00	2.7205e+00
2.3184e-01	2.5533e+00	2.7181e+00
2.3314e-01	2.5659e+00	2.7156e+00
2.3444e-01	2.5784e+00	2.7130e+00
2.3577e-01	2.5909e+00	2.7104e+00
2.3710e-01	2.6033e+00	2.7077e+00
2.3845e-01	2.6157e+00	2.7049e+00
2.3982e-01	2.6280e+00	2.7021e+00
2.4120e-01	2.6402e+00	2.6992e+00
2.4260e-01	2.6524e+00	2.6962e+00
2.4402e-01	2.6645e+00	2.6932e+00
2.4545e-01	2.6765e+00	2.6901e+00
2.4690e-01	2.6885e+00	2.6870e+00
2.4837e-01	2.7004e+00	2.6838e+00
2.4985e-01	2.7122e+00	2.6805e+00
2.5135e-01	2.7240e+00	2.6772e+00
2.5287e-01	2.7357e+00	2.6739e+00
2.5441e-01	2.7473e+00	2.6705e+00
2.5597e-01	2.7588e+00	2.6670e+00
2.5755e-01	2.7702e+00	2.6635e+00
2.5914e-01	2.7816e+00	2.6600e+00
2.6076e-01	2.7928e+00	2.6564e+00
2.6239e-01	2.8040e+00	2.6528e+00
2.6405e-01	2.8151e+00	2.6492e+00
2.6573e-01	2.8261e+00	2.6455e+00
2.6743e-01	2.8370e+00	2.6418e+00
2.6915e-01	2.8478e+00	2.6381e+00
2.7089e-01	2.8584e+00	2.6343e+00
2.7266e-01	2.8690e+00	2.6306e+00
2.7445e-01	2.8795e+00	2.6268e+00
2.7626e-01	2.8899e+00	2.6230e+00
2.7810e-01	2.9002e+00	2.6192e+00
2.7996e-01	2.9104e+00	2.6154e+00
2.8185e-01	2.9205e+00	2.6116e+00
2.8376e-01	2.9304e+00	2.6078e+00
2.8570e-01	2.9403e+00	2.6040e+00
2.8766e-01	2.9500e+00	2.6002e+00
2.8966e-01	2.9596e+00	2.5965e+00
2.9168e-01	2.9691e+00	2.5927e+00
2.9372e-01	2.9785e+00	2.5890e+00
2.9580e-01	2.9877e+00	2.5853e+00
2.9791e-01	2.9968e+00	2.5817e+00
3.0005e-01	3.0058e+00	2.5781e+00
3.0222e-01	3.0147e+00	2.5745e+00
3.0442e-01	3.0234e+00	2.5710e+00
3.0665e-01	3.0321e+00	2.5676e+00
3.0891e-01	3.0405e+00	2.5642e+00
3.1121e-01	3.0489e+00	2.5609e+00
3.1354e-01	3.0571e+00	2.5577e+00
3.1591e-01	3.0652e+00	2.5545e+00
3.1832e-01	3.0731e+00	2.5515e+00
3.2076e-01	3.0809e+00	2.5485e+00
3.2324e-01	3.0886e+00	2.5456e+00
3.2576e-01	3.0961e+00	2.5429e+00
3.2831e-01	3.1035e+00	2.5403e+00
3.3091e-01	3.1108e+00	2.5378e+00
3.3355e-01	3.1179e+00	2.5355e+00
3.3623e-01	3.1249e+00	2.5333e+00
3.3896e-01	3.1318e+00	2.5313e+00
3.4173e-01	3.1385e+00	2.5294e+00
3.4454e-01	3.1451e+00	2.5278e+00
3.4741e-01	3.1516e+00	2.5263e+00
3.5032e-01	3.1579e+00	2.5250e+00
3.5328e-01	3.1641e+00	2.5239e+00
3.5629e-01	3.1702e+00	2.5231e+00
3.5935e-01	3.1762e+00	2.5225e+00
3.6246e-01	3.1821e+00	2.5221e+00
3.6563e-01	3.1879e+00	2.5221e+00
3.6886e-01	3.1936e+00	2.5223e+00
3.7214e-01	3.1992e+00	2.5227e+00
3.7548e-01	3.2047e+00	2.5235e+00
3.7888e-01	3.2102e+00	2.5246e+00
3.8235e-01	3.2156e+00	2.5260e+00
3.8588e-01	3.2210e+00	2.5278e+00
3.8947e-01	3.2263e+00	2.5299e+00
3.9313e-01	3.2316e+00	2.5324e+00
3.9686e-01	3.2370e+00	2.5352e+00
4.0066e-01	3.2423e+00	2.5385e+00
4.0454e-01	3.2477e+00	2.5421e+00
4.0849e-01	3.2532e+00	2.5462e+00
4.1252e-01	3.2587e+00	2.5507e+00
4.1663e-01	3.2644e+00	2.5555e+00
4.2082e-01	3.2702e+00	2.5608e+00
4.2510e-01	3.2762e+00	2.5666e+00
4.2947e-01	3.2824e+00	2.5727e+00
4.3392e-01	3.2888e+00	2.5793e+00
4.3847e-01	3.2954e+00	2.5863e+00
4.4312e-01	3.3023e+00	2.5937e+00
4.4786e-01	3.3096e+00	2.6015e+00
4.5271e-01	3.3172e+00	2.6096e+00
4.5767e-01	3.3252e+00	2.6181e+00
4.6273e-01	3.3336e+00	2.6269e+00
4.6791e-01	3.3425e+00	2.6360e+00
4.7320e-01	3.3518e+00	2.6453e+00
4.7862e-01	3.3616e+00	2.6549e+00
4.8416e-01	3.3719e+00	2.6645e+00
4.8983e-01	3.3828e+00	2.6743e+00
4.9564e-01	3.3941e+00	2.6841e+00
5.0158e-01	3.4060e+00	2.6939e+00
5.0767e-01	3.4183e+00	2.7037e+00
5.1391e-01	3.4312e+00	2.7132e+00
5.2030e-01	3.4445e+00	2.7225e+00
5.2686e-01	3.4583e+00	2.7316e+00
5.3358e-01	3.4724e+00	2.7402e+00
5.4048e-01	3.4868e+00	2.7485e+00
5.4756e-01	3.5015e+00	2.7562e+00
5.5482e-01	3.5163e+00	2.7634e+00
5.6228e-01	3.5312e+00	2.7699e+00
5.6994e-01	3.5460e+00	2.7757e+00
5.7782e-01	3.5606e+00	2.7809e+00
5.8591e-01	3.5749e+00	2.7853e+00
5.9424e-01	3.5887e+00	2.7889e+00
6.0281e-01	3.6018e+00	2.7918e+00
6.1162e-01	3.6142e+00	2.7939e+00
6.2070e-01	3.6255e+00	2.7952e+00
6.3005e-01	3.6357e+00	2.7959e+00
6.3969e-01	3.6445e+00	2.7960e+00
6.4963e-01	3.6516e+00	2.7956e+00
6.5988e-01	3.6570e+00	2.7947e+00
6.7046e-01	3.6603e+00	2.7936e+00
6.8138e-01	3.6613e+00	2.7923e+00
6.9267e-01	3.6598e+00	2.7911e+00
7.0433e-01	3.6556e+00	2.7903e+00
7.1640e-01	3.6484e+00	2.7900e+00
7.2889e-01	3.6380e+00	2.7906e+00
7.4182e-01	3.6241e+00	2.7924e+00
7.5521e-01	3.6065e+00	2.7959e+00
7.6910e-01	3.5851e+00	2.8014e+00
7.8351e-01	3.5595e+00	2.8096e+00
7.9847e-01	3.5296e+00	2.8210e+00
8.1402e-01	3.4952e+00	2.8363e+00
8.3018e-01	3.4562e+00	2.8563e+00
8.4699e-01	3.4125e+00	2.8820e+00
8.6450e-01	3.3644e+00	2.9144e+00
8.8275e-01	3.3119e+00	2.9548e+00
9.0179e-01	3.2557e+00	3.0046e+00
9.2166e-01	3.1965e+00	3.0654e+00
9.4243e-01	3.1357e+00	3.1389e+00
9.6416e-01	3.0755e+00	3.2268e+00
9.8691e-01	3.0189e+00	3.3304e+00
1.0108e+00	2.9699e+00	3.4505e+00
1.0358e+00	2.9338e+00	3.5862e+00
1.0621e+00	2.9166e+00	3.7345e+00
1.0898e+00	2.9237e+00	3.8886e+00
1.1190e+00	2.9582e+00	4.0383e+00
1.1497e+00	3.0178e+00	4.1705e+00
1.1822e+00	3.0932e+00	4.2718e+00
1.2166e+00	3.1678e+00	4.3333e+00
1.2531e+00	3.2193e+00	4.3543e+00
1.2918e+00	3.2253e+00	4.3452e+00
1.3329e+00	3.1687e+00	4.3271e+00
1.3768e+00	3.0431e+00	4.3286e+00
1.4237e+00	2.8558e+00	4.3788e+00
1.4739e+00	2.6264e+00	4.5007e+00
1.5277e+00	2.3819e+00	4.7047e+00
1.5857e+00	2.1476e+00	4.9876e+00
1.6482e+00	1.9402e+00	5.3374e+00
1.7158e+00	1.7664e+00	5.7403e+00
1.7892e+00	1.6260e+00	6.1863e+00
1.8692e+00	1.5156e+00	6.6702e+00
1.9566e+00	1.4311e+00	7.1911e+00
2.0527e+00	1.3693e+00	7.7511e+00
2.1586e+00	1.3278e+00	8.3552e+00
2.2761e+00	1.3055e+00	9.0100e+00
2.4071e+00	1.3022e+00	9.7246e+00
2.5541e+00	1.3186e+00	1.0510e+01
2.7203e+00	1.3569e+00	1.1381e+01
2.9095e+00	1.4204e+00	1.2356e+01
3.1271e+00	1.5146e+00	1.3457e+01
3.3798e+00	1.6472e+00	1.4716e+01
3.6770e+00	1.8301e+00	1.6172e+01
4.0315e+00	2.0814e+00	1.7882e+01
4.4616e+00	2.4287e+00	1.9923e+01
4.9945e+00	2.9168e+00	2.2407e+01
5.6719e+00	3.6206e+00	2.5498e+01
6.5619e+00	4.6728e+00	2.9456e+01
7.7832e+00	6.3254e+00	3.4699e+01
9.5631e+00	9.0982e+00	4.1949e+01
1.2398e+01	1.4184e+01	5.2528e+01
