Material: main / MoS2 / Ermolaev
Optical constants. G. A. Ermolaev, D. I. Yakubovsky, Yu. V. Stebunov, A. V. Arsenin, V. S. Volkov. Spectral ellipsometry of monolayer transition metal dichalcogenides: Analysis of excitonic peaks in dispersion, J. Vac. Sci. Technol. B 38, 014002 (2020) (Numerical data kindly provided by Georgy Ermolaev)
Comments: Optical constants of monolayer MoS2 were measured by spectroscopic ellipsometry in the spectral range 365&#8209;1700&nbsp;nm. MoS2 samples were synthesized by atmospheric pressure chemical vapor deposition on silicon wafers with 285&nbsp;nm of SiO2. Taucâ€“Lorentz oscillators were used in ellipsometry model to describe the optical response of excitons.
Specs: {"n_absolute": true, "wavelength_vacuum": true, "film_thickness": "1L", "substrate": "SiO2/Si"}
wavelength (um)	n	k
0.365	1.459	3.547
0.369	1.551	3.631
0.373	1.652	3.716
0.377	1.763	3.801
0.381	1.885	3.884
0.385	2.019	3.965
0.389	2.166	4.041
0.393	2.328	4.110
0.397	2.504	4.171
0.401	2.695	4.219
0.405	2.901	4.251
0.409	3.120	4.264
0.413	3.350	4.252
0.417	3.587	4.212
0.421	3.825	4.142
0.425	4.057	4.039
0.429	4.277	3.903
0.433	4.477	3.739
0.437	4.651	3.551
0.441	4.794	3.345
0.445	4.904	3.130
0.449	4.983	2.911
0.453	5.032	2.696
0.457	5.054	2.489
0.461	5.054	2.295
0.465	5.036	2.113
0.469	5.003	1.947
0.473	4.959	1.796
0.477	4.907	1.659
0.481	4.850	1.536
0.485	4.789	1.426
0.489	4.725	1.327
0.493	4.660	1.239
0.497	4.595	1.161
0.501	4.530	1.091
0.505	4.466	1.029
0.509	4.403	0.9747
0.513	4.342	0.9265
0.517	4.281	0.8841
0.521	4.222	0.8472
0.525	4.165	0.8152
0.529	4.109	0.7879
0.533	4.055	0.7650
0.537	4.002	0.7462
0.541	3.950	0.7314
0.545	3.900	0.7206
0.549	3.851	0.7136
0.553	3.804	0.7106
0.557	3.758	0.7116
0.561	3.713	0.7169
0.565	3.670	0.7266
0.569	3.628	0.7411
0.573	3.589	0.7609
0.577	3.553	0.7865
0.581	3.520	0.8183
0.585	3.492	0.8571
0.589	3.469	0.9033
0.593	3.456	0.9572
0.597	3.453	1.019
0.601	3.466	1.086
0.605	3.497	1.158
0.609	3.552	1.227
0.613	3.632	1.287
0.617	3.736	1.326
0.621	3.859	1.333
0.625	3.985	1.299
0.629	4.097	1.226
0.633	4.177	1.122
0.637	4.218	1.005
0.641	4.221	0.8926
0.645	4.193	0.7984
0.649	4.145	0.7297
0.653	4.086	0.6908
0.657	4.026	0.6858
0.661	3.976	0.7210
0.665	3.960	0.8047
0.669	4.032	0.9318
0.673	4.268	1.015
0.677	4.585	0.8418
0.681	4.659	0.4762
0.685	4.524	0.2231
0.689	4.364	0.1047
0.693	4.234	0.05379
0.697	4.133	0.03247
0.701	4.055	0.02437
0.705	3.995	0.02002
0.709	3.944	0.01648
0.713	3.899	0.01362
0.717	3.860	0.01135
0.721	3.825	0.009602
0.725	3.793	0.008292
0.729	3.764	0.007233
0.733	3.737	0.006253
0.737	3.712	0.005351
0.741	3.689	0.004526
0.745	3.668	0.003777
0.749	3.647	0.003101
0.753	3.628	0.002498
0.757	3.609	0.001964
0.761	3.592	0.001499
0.765	3.575	0.001101
0.769	3.560	7.666E-04
0.773	3.544	4.952E-04
0.777	3.530	2.847E-04
0.781	3.516	1.333E-04
0.785	3.503	3.934E-05
0.789	3.490	1.102E-06
0.793	3.478	0.000
0.797	3.466	0.000
0.801	3.455	0.000
0.805	3.444	0.000
0.809	3.433	0.000
0.813	3.423	0.000
0.817	3.414	0.000
0.821	3.404	0.000
0.825	3.395	0.000
0.829	3.386	0.000
0.833	3.377	0.000
0.837	3.369	0.000
0.841	3.361	0.000
0.845	3.353	0.000
0.849	3.345	0.000
0.853	3.338	0.000
0.857	3.331	0.000
0.861	3.324	0.000
0.865	3.317	0.000
0.869	3.310	0.000
0.873	3.303	0.000
0.877	3.297	0.000
0.881	3.291	0.000
0.885	3.285	0.000
0.889	3.279	0.000
0.893	3.273	0.000
0.897	3.267	0.000
0.901	3.262	0.000
0.905	3.257	0.000
0.909	3.251	0.000
0.913	3.246	0.000
0.917	3.241	0.000
0.921	3.236	0.000
0.925	3.231	0.000
0.929	3.227	0.000
0.933	3.222	0.000
0.937	3.217	0.000
0.941	3.213	0.000
0.945	3.209	0.000
0.949	3.204	0.000
0.953	3.200	0.000
0.957	3.196	0.000
0.961	3.192	0.000
0.965	3.188	0.000
0.969	3.184	0.000
0.973	3.180	0.000
0.977	3.177	0.000
0.981	3.173	0.000
0.985	3.169	0.000
0.989	3.166	0.000
0.993	3.162	0.000
0.997	3.159	0.000
1.001	3.156	0.000
1.005	3.152	0.000
1.009	3.149	0.000
1.013	3.146	0.000
1.017	3.143	0.000
1.021	3.140	0.000
1.025	3.137	0.000
1.029	3.134	0.000
1.033	3.131	0.000
1.037	3.128	0.000
1.041	3.125	0.000
1.045	3.122	0.000
1.049	3.119	0.000
1.053	3.117	0.000
1.057	3.114	0.000
1.061	3.111	0.000
1.065	3.109	0.000
1.069	3.106	0.000
1.073	3.104	0.000
1.077	3.101	0.000
1.081	3.099	0.000
1.085	3.097	0.000
1.089	3.094	0.000
1.093	3.092	0.000
1.097	3.090	0.000
1.101	3.087	0.000
1.105	3.085	0.000
1.109	3.083	0.000
1.113	3.081	0.000
1.117	3.079	0.000
1.121	3.077	0.000
1.125	3.075	0.000
1.129	3.072	0.000
1.133	3.070	0.000
1.137	3.068	0.000
1.141	3.067	0.000
1.145	3.065	0.000
1.149	3.063	0.000
1.153	3.061	0.000
1.157	3.059	0.000
1.161	3.057	0.000
1.165	3.055	0.000
1.169	3.054	0.000
1.173	3.052	0.000
1.177	3.050	0.000
1.181	3.048	0.000
1.185	3.047	0.000
1.189	3.045	0.000
1.193	3.043	0.000
1.197	3.042	0.000
1.201	3.040	0.000
1.205	3.039	0.000
1.209	3.037	0.000
1.213	3.035	0.000
1.217	3.034	0.000
1.221	3.032	0.000
1.225	3.031	0.000
1.229	3.029	0.000
1.233	3.028	0.000
1.237	3.027	0.000
1.241	3.025	0.000
1.245	3.024	0.000
1.249	3.022	0.000
1.253	3.021	0.000
1.257	3.020	0.000
1.261	3.018	0.000
1.265	3.017	0.000
1.269	3.016	0.000
1.273	3.014	0.000
1.277	3.013	0.000
1.281	3.012	0.000
1.285	3.011	0.000
1.289	3.009	0.000
1.293	3.008	0.000
1.297	3.007	0.000
1.301	3.006	0.000
1.305	3.005	0.000
1.309	3.003	0.000
1.313	3.002	0.000
1.317	3.001	0.000
1.321	3.000	0.000
1.325	2.999	0.000
1.329	2.998	0.000
1.333	2.997	0.000
1.337	2.996	0.000
1.341	2.994	0.000
1.345	2.993	0.000
1.349	2.992	0.000
1.353	2.991	0.000
1.357	2.990	0.000
1.361	2.989	0.000
1.365	2.988	0.000
1.369	2.987	0.000
1.373	2.986	0.000
1.377	2.985	0.000
1.381	2.984	0.000
1.385	2.983	0.000
1.389	2.982	0.000
1.393	2.981	0.000
1.397	2.981	0.000
1.401	2.980	0.000
1.405	2.979	0.000
1.409	2.978	0.000
1.413	2.977	0.000
1.417	2.976	0.000
1.421	2.975	0.000
1.425	2.974	0.000
1.429	2.973	0.000
1.433	2.973	0.000
1.437	2.972	0.000
1.441	2.971	0.000
1.445	2.970	0.000
1.449	2.969	0.000
1.453	2.969	0.000
1.457	2.968	0.000
1.461	2.967	0.000
1.465	2.966	0.000
1.469	2.965	0.000
1.473	2.965	0.000
1.477	2.964	0.000
1.481	2.963	0.000
1.485	2.962	0.000
1.489	2.962	0.000
1.493	2.961	0.000
1.497	2.960	0.000
1.501	2.959	0.000
1.505	2.959	0.000
1.509	2.958	0.000
1.513	2.957	0.000
1.517	2.957	0.000
1.521	2.956	0.000
1.525	2.955	0.000
1.529	2.955	0.000
1.533	2.954	0.000
1.537	2.953	0.000
1.541	2.953	0.000
1.545	2.952	0.000
1.549	2.951	0.000
1.553	2.951	0.000
1.557	2.950	0.000
1.561	2.949	0.000
1.565	2.949	0.000
1.569	2.948	0.000
1.573	2.947	0.000
1.577	2.947	0.000
1.581	2.946	0.000
1.585	2.946	0.000
1.589	2.945	0.000
1.593	2.944	0.000
1.597	2.944	0.000
1.601	2.943	0.000
1.605	2.943	0.000
1.609	2.942	0.000
1.613	2.942	0.000
1.617	2.941	0.000
1.621	2.940	0.000
1.625	2.940	0.000
1.629	2.939	0.000
1.633	2.939	0.000
1.637	2.938	0.000
1.641	2.938	0.000
1.645	2.937	0.000
1.649	2.937	0.000
1.653	2.936	0.000
1.657	2.936	0.000
1.661	2.935	0.000
1.665	2.935	0.000
1.669	2.934	0.000
1.673	2.934	0.000
1.677	2.933	0.000
1.681	2.933	0.000
1.685	2.932	0.000
1.689	2.932	0.000
1.693	2.931	0.000
1.697	2.931	0.000
