Material: organic / (C37H24O6N2)n - polyetherimide / Zhang
Optical constants. X. Zhang, J. Qiu, X. Li, J. Zhao, L. Liu. Complex refractive indices measurements of polymers in visible and near-infrared bands, Appl. Opt. 59, 2337-2344 (2020)
Comments: Normal temperature and pressure. Manufacturer: Winning engineering plastic, China.
Specs: {"n_absolute": true, "wavelength_vacuum": false}
wavelength (um)	n	k
0.40	1.65489	7.40E-05
0.41	1.65125	8.63E-05
0.42	1.64792	4.87E-05
0.43	1.64503	3.01E-05
0.44	1.64280	2.20E-05
0.45	1.64096	1.72E-05
0.46	1.63893	1.38E-05
0.47	1.63755	1.15E-05
0.48	1.63586	9.66E-06
0.49	1.63415	8.47E-06
0.50	1.63333	7.53E-06
0.51	1.63220	6.76E-06
0.52	1.63076	6.13E-06
0.53	1.62948	5.59E-06
0.54	1.62900	5.08E-06
0.55	1.62795	4.67E-06
0.56	1.62746	4.28E-06
0.57	1.62653	3.96E-06
0.58	1.62629	3.65E-06
0.59	1.62609	3.42E-06
0.60	1.62439	3.17E-06
0.61	1.62401	2.98E-06
0.62	1.62392	2.77E-06
0.63	1.62250	2.60E-06
0.64	1.62273	2.42E-06
0.65	1.62204	2.32E-06
0.66	1.62185	2.16E-06
0.67	1.62057	2.09E-06
0.68	1.62139	1.94E-06
0.69	1.62040	1.84E-06
0.70	1.62058	1.74E-06
0.71	1.61972	1.73E-06
0.72	1.61996	1.58E-06
0.73	1.61953	1.60E-06
0.74	1.61865	1.56E-06
0.75	1.61865	1.45E-06
0.76	1.61975	1.44E-06
0.77	1.61784	1.42E-06
0.78	1.61865	1.36E-06
0.79	1.61808	1.30E-06
0.80	1.61848	1.31E-06
0.81	1.61859	1.26E-06
0.82	1.61798	1.32E-06
0.83	1.61896	7.38E-07
0.84	1.61780	1.16E-06
0.85	1.62055	9.67E-07
0.86	1.62042	1.10E-06
0.87	1.62041	9.90E-07
0.88	1.62026	4.19E-06
0.89	1.62027	3.69E-06
0.90	1.62018	4.32E-06
0.91	1.62015	1.25E-06
0.92	1.61999	8.81E-07
0.93	1.61992	2.97E-07
0.94	1.61977	1.64E-06
0.95	1.61972	1.31E-06
0.96	1.61976	1.59E-06
0.97	1.61957	8.12E-07
0.98	1.61949	1.37E-06
0.99	1.61938	2.84E-06
1.00	1.61951	3.76E-06
1.01	1.61949	1.90E-06
1.02	1.61949	1.85E-06
1.03	1.61728	1.60E-06
1.04	1.61784	1.66E-06
1.05	1.61725	1.66E-06
1.06	1.61726	1.56E-06
1.07	1.61739	1.59E-06
1.08	1.61745	1.53E-06
1.09	1.61792	1.60E-06
1.10	1.61781	1.76E-06
1.11	1.61759	1.97E-06
1.12	1.61716	4.15E-06
1.13	1.61708	7.44E-06
1.14	1.61724	7.08E-06
1.15	1.61601	4.32E-06
1.16	1.61740	3.15E-06
1.17	1.61778	3.36E-06
1.18	1.61786	3.79E-06
1.19	1.61732	4.11E-06
1.20	1.61705	2.26E-06
1.21	1.61697	1.95E-06
1.22	1.61626	1.69E-06
1.23	1.61684	1.86E-06
1.24	1.61737	1.52E-06
1.25	1.61683	1.52E-06
1.26	1.61597	1.67E-06
1.27	1.61777	2.63E-06
1.28	1.61671	1.92E-06
1.29	1.61589	1.77E-06
1.30	1.61710	1.86E-06
1.31	1.61475	2.03E-06
1.32	1.61628	2.18E-06
1.33	1.61595	2.61E-06
1.34	1.61540	3.04E-06
1.35	1.61596	3.72E-06
1.36	1.61713	4.73E-06
1.37	1.61680	5.73E-06
1.38	1.61557	6.76E-06
1.39	1.61580	7.05E-06
1.40	1.61544	9.09E-06
1.41	1.61547	1.18E-05
1.42	1.61619	8.80E-06
1.43	1.61623	7.20E-06
1.44	1.61588	5.92E-06
1.45	1.61610	5.41E-06
1.46	1.61661	5.48E-06
1.47	1.61661	5.24E-06
1.48	1.61694	2.10E-06
1.49	1.61648	3.80E-06
1.50	1.61683	3.43E-06
1.51	1.61514	3.29E-06
1.52	1.61768	3.19E-06
1.53	1.61625	3.04E-06
1.54	1.61545	3.02E-06
1.55	1.61651	3.34E-06
1.56	1.61645	2.93E-06
1.57	1.61521	3.11E-06
1.58	1.61515	3.40E-06
1.59	1.61570	3.93E-06
1.60	1.61581	4.94E-06
1.61	1.61435	7.10E-06
1.62	1.61519	1.23E-05
1.63	1.61375	1.94E-05
1.64	1.61631	3.09E-05
1.65	1.61574	5.94E-05
1.66	1.61472	1.06E-04
1.67	1.61685	1.22E-04
1.68	1.61364	6.83E-05
1.69	1.61578	5.32E-05
1.70	1.61491	3.90E-05
1.71	1.61696	2.65E-05
1.72	1.61555	2.31E-05
1.73	1.61605	2.42E-05
1.74	1.61745	2.41E-05
1.75	1.61555	1.77E-05
1.76	1.61545	1.65E-05
1.77	1.61534	1.78E-05
1.78	1.61893	1.53E-05
1.79	1.61363	1.44E-05
1.80	1.61606	1.53E-05
1.81	1.61465	1.59E-05
1.82	1.61784	1.65E-05
1.83	1.61526	1.73E-05
1.84	1.61216	1.70E-05
1.85	1.61408	1.74E-05
1.86	1.61641	1.78E-05
1.87	1.61836	1.88E-05
1.88	1.61296	2.16E-05
1.89	1.61272	3.46E-05
1.90	1.61329	8.32E-05
1.91	1.61444	8.36E-05
1.92	1.61659	4.90E-05
1.93	1.61443	3.46E-05
1.94	1.61807	3.45E-05
1.95	1.61511	3.19E-05
1.96	1.61400	2.49E-05
1.97	1.61274	2.11E-05
1.98	1.61555	1.89E-05
1.99	1.61831	1.86E-05
2.00	1.61732	1.86E-05
