Material: main / Cr / Rakic
Optical constants. A. D. Rakić, A. B. Djurišic, J. M. Elazar, and M. L. Majewski. Optical properties of metallic films for vertical-cavity optoelectronic devices, Appl. Opt. 37, 5271-5283 (1998)[Calculation script (Python)]
Comments: Fit of the experimental data from several sources to Brendel-Bormann (BB) model
wavelength (um)	n	k
2.0664e-01	5.5511e-01	1.8974e+00
2.0767e-01	5.5914e-01	1.9081e+00
2.0870e-01	5.6323e-01	1.9190e+00
2.0975e-01	5.6737e-01	1.9299e+00
2.1081e-01	5.7158e-01	1.9409e+00
2.1188e-01	5.7585e-01	1.9520e+00
2.1295e-01	5.8019e-01	1.9632e+00
2.1404e-01	5.8459e-01	1.9745e+00
2.1515e-01	5.8906e-01	1.9858e+00
2.1626e-01	5.9360e-01	1.9973e+00
2.1738e-01	5.9821e-01	2.0088e+00
2.1852e-01	6.0289e-01	2.0205e+00
2.1967e-01	6.0764e-01	2.0322e+00
2.2083e-01	6.1246e-01	2.0441e+00
2.2200e-01	6.1737e-01	2.0560e+00
2.2318e-01	6.2235e-01	2.0681e+00
2.2438e-01	6.2740e-01	2.0802e+00
2.2559e-01	6.3254e-01	2.0924e+00
2.2681e-01	6.3776e-01	2.1048e+00
2.2805e-01	6.4307e-01	2.1172e+00
2.2930e-01	6.4846e-01	2.1298e+00
2.3057e-01	6.5394e-01	2.1425e+00
2.3184e-01	6.5951e-01	2.1553e+00
2.3314e-01	6.6517e-01	2.1681e+00
2.3444e-01	6.7093e-01	2.1811e+00
2.3577e-01	6.7678e-01	2.1943e+00
2.3710e-01	6.8272e-01	2.2075e+00
2.3845e-01	6.8877e-01	2.2209e+00
2.3982e-01	6.9492e-01	2.2343e+00
2.4120e-01	7.0118e-01	2.2479e+00
2.4260e-01	7.0754e-01	2.2616e+00
2.4402e-01	7.1402e-01	2.2755e+00
2.4545e-01	7.2060e-01	2.2895e+00
2.4690e-01	7.2730e-01	2.3036e+00
2.4837e-01	7.3412e-01	2.3178e+00
2.4985e-01	7.4106e-01	2.3321e+00
2.5135e-01	7.4812e-01	2.3466e+00
2.5287e-01	7.5531e-01	2.3613e+00
2.5441e-01	7.6263e-01	2.3760e+00
2.5597e-01	7.7008e-01	2.3909e+00
2.5755e-01	7.7767e-01	2.4060e+00
2.5914e-01	7.8540e-01	2.4212e+00
2.6076e-01	7.9327e-01	2.4365e+00
2.6239e-01	8.0128e-01	2.4520e+00
2.6405e-01	8.0945e-01	2.4676e+00
2.6573e-01	8.1777e-01	2.4834e+00
2.6743e-01	8.2625e-01	2.4993e+00
2.6915e-01	8.3489e-01	2.5154e+00
2.7089e-01	8.4369e-01	2.5316e+00
2.7266e-01	8.5267e-01	2.5480e+00
2.7445e-01	8.6183e-01	2.5646e+00
2.7626e-01	8.7116e-01	2.5813e+00
2.7810e-01	8.8068e-01	2.5982e+00
2.7996e-01	8.9039e-01	2.6153e+00
2.8185e-01	9.0029e-01	2.6325e+00
2.8376e-01	9.1039e-01	2.6499e+00
2.8570e-01	9.2070e-01	2.6675e+00
2.8766e-01	9.3122e-01	2.6852e+00
2.8966e-01	9.4196e-01	2.7031e+00
2.9168e-01	9.5293e-01	2.7212e+00
2.9372e-01	9.6412e-01	2.7395e+00
2.9580e-01	9.7555e-01	2.7580e+00
2.9791e-01	9.8722e-01	2.7766e+00
3.0005e-01	9.9914e-01	2.7955e+00
3.0222e-01	1.0113e+00	2.8145e+00
3.0442e-01	1.0238e+00	2.8337e+00
3.0665e-01	1.0365e+00	2.8531e+00
3.0891e-01	1.0495e+00	2.8727e+00
3.1121e-01	1.0628e+00	2.8925e+00
3.1354e-01	1.0764e+00	2.9125e+00
3.1591e-01	1.0903e+00	2.9327e+00
3.1832e-01	1.1045e+00	2.9530e+00
3.2076e-01	1.1190e+00	2.9736e+00
3.2324e-01	1.1339e+00	2.9944e+00
3.2576e-01	1.1491e+00	3.0154e+00
3.2831e-01	1.1647e+00	3.0366e+00
3.3091e-01	1.1806e+00	3.0579e+00
3.3355e-01	1.1970e+00	3.0795e+00
3.3623e-01	1.2137e+00	3.1013e+00
3.3896e-01	1.2308e+00	3.1233e+00
3.4173e-01	1.2483e+00	3.1455e+00
3.4454e-01	1.2663e+00	3.1678e+00
3.4741e-01	1.2847e+00	3.1904e+00
3.5032e-01	1.3036e+00	3.2132e+00
3.5328e-01	1.3229e+00	3.2361e+00
3.5629e-01	1.3427e+00	3.2592e+00
3.5935e-01	1.3631e+00	3.2826e+00
3.6246e-01	1.3839e+00	3.3061e+00
3.6563e-01	1.4052e+00	3.3297e+00
3.6886e-01	1.4272e+00	3.3536e+00
3.7214e-01	1.4496e+00	3.3776e+00
3.7548e-01	1.4727e+00	3.4017e+00
3.7888e-01	1.4963e+00	3.4260e+00
3.8235e-01	1.5206e+00	3.4505e+00
3.8588e-01	1.5455e+00	3.4751e+00
3.8947e-01	1.5711e+00	3.4997e+00
3.9313e-01	1.5973e+00	3.5245e+00
3.9686e-01	1.6242e+00	3.5494e+00
4.0066e-01	1.6519e+00	3.5744e+00
4.0454e-01	1.6802e+00	3.5994e+00
4.0849e-01	1.7093e+00	3.6245e+00
4.1252e-01	1.7392e+00	3.6496e+00
4.1663e-01	1.7699e+00	3.6747e+00
4.2082e-01	1.8013e+00	3.6998e+00
4.2510e-01	1.8336e+00	3.7248e+00
4.2947e-01	1.8667e+00	3.7498e+00
4.3392e-01	1.9007e+00	3.7747e+00
4.3847e-01	1.9355e+00	3.7994e+00
4.4312e-01	1.9713e+00	3.8240e+00
4.4786e-01	2.0079e+00	3.8484e+00
4.5271e-01	2.0455e+00	3.8726e+00
4.5767e-01	2.0840e+00	3.8966e+00
4.6273e-01	2.1234e+00	3.9202e+00
4.6791e-01	2.1637e+00	3.9435e+00
4.7320e-01	2.2050e+00	3.9664e+00
4.7862e-01	2.2473e+00	3.9889e+00
4.8416e-01	2.2905e+00	4.0109e+00
4.8983e-01	2.3346e+00	4.0324e+00
4.9564e-01	2.3797e+00	4.0533e+00
5.0158e-01	2.4257e+00	4.0736e+00
5.0767e-01	2.4726e+00	4.0932e+00
5.1391e-01	2.5204e+00	4.1121e+00
5.2030e-01	2.5691e+00	4.1302e+00
5.2686e-01	2.6186e+00	4.1475e+00
5.3358e-01	2.6689e+00	4.1638e+00
5.4048e-01	2.7199e+00	4.1792e+00
5.4756e-01	2.7717e+00	4.1937e+00
5.5482e-01	2.8242e+00	4.2070e+00
5.6228e-01	2.8772e+00	4.2193e+00
5.6994e-01	2.9308e+00	4.2304e+00
5.7782e-01	2.9849e+00	4.2404e+00
5.8591e-01	3.0394e+00	4.2491e+00
5.9424e-01	3.0942e+00	4.2565e+00
6.0281e-01	3.1492e+00	4.2627e+00
6.1162e-01	3.2044e+00	4.2675e+00
6.2070e-01	3.2596e+00	4.2710e+00
6.3005e-01	3.3147e+00	4.2732e+00
6.3969e-01	3.3697e+00	4.2740e+00
6.4963e-01	3.4243e+00	4.2735e+00
6.5988e-01	3.4786e+00	4.2716e+00
6.7046e-01	3.5323e+00	4.2685e+00
6.8138e-01	3.5853e+00	4.2641e+00
6.9267e-01	3.6376e+00	4.2584e+00
7.0433e-01	3.6889e+00	4.2516e+00
7.1640e-01	3.7392e+00	4.2437e+00
7.2889e-01	3.7882e+00	4.2347e+00
7.4182e-01	3.8359e+00	4.2248e+00
7.5521e-01	3.8822e+00	4.2141e+00
7.6910e-01	3.9268e+00	4.2027e+00
7.8351e-01	3.9696e+00	4.1907e+00
7.9847e-01	4.0105e+00	4.1783e+00
8.1402e-01	4.0494e+00	4.1657e+00
8.3018e-01	4.0861e+00	4.1529e+00
8.4699e-01	4.1205e+00	4.1403e+00
8.6450e-01	4.1524e+00	4.1280e+00
8.8275e-01	4.1817e+00	4.1162e+00
9.0179e-01	4.2082e+00	4.1052e+00
9.2166e-01	4.2319e+00	4.0954e+00
9.4243e-01	4.2526e+00	4.0869e+00
9.6416e-01	4.2701e+00	4.0801e+00
9.8691e-01	4.2843e+00	4.0753e+00
1.0108e+00	4.2951e+00	4.0730e+00
1.0358e+00	4.3023e+00	4.0735e+00
1.0621e+00	4.3058e+00	4.0773e+00
1.0898e+00	4.3055e+00	4.0849e+00
1.1190e+00	4.3011e+00	4.0969e+00
1.1497e+00	4.2925e+00	4.1138e+00
1.1822e+00	4.2796e+00	4.1364e+00
1.2166e+00	4.2623e+00	4.1655e+00
1.2531e+00	4.2403e+00	4.2019e+00
1.2918e+00	4.2136e+00	4.2466e+00
1.3329e+00	4.1821e+00	4.3007e+00
1.3768e+00	4.1456e+00	4.3654e+00
1.4237e+00	4.1041e+00	4.4423e+00
1.4739e+00	4.0576e+00	4.5329e+00
1.5277e+00	4.0062e+00	4.6391e+00
1.5857e+00	3.9501e+00	4.7629e+00
1.6482e+00	3.8897e+00	4.9068e+00
1.7158e+00	3.8255e+00	5.0733e+00
1.7892e+00	3.7581e+00	5.2655e+00
1.8692e+00	3.6885e+00	5.4867e+00
1.9566e+00	3.6179e+00	5.7406e+00
2.0527e+00	3.5477e+00	6.0315e+00
2.1586e+00	3.4795e+00	6.3640e+00
2.2761e+00	3.4153e+00	6.7438e+00
2.4071e+00	3.3573e+00	7.1774e+00
2.5541e+00	3.3080e+00	7.6727e+00
2.7203e+00	3.2703e+00	8.2394e+00
2.9095e+00	3.2474e+00	8.8901e+00
3.1271e+00	3.2438e+00	9.6410e+00
3.3798e+00	3.2648e+00	1.0513e+01
3.6770e+00	3.3183e+00	1.1536e+01
4.0315e+00	3.4155e+00	1.2750e+01
4.4616e+00	3.5734e+00	1.4211e+01
4.9945e+00	3.8196e+00	1.6002e+01
5.6719e+00	4.2007e+00	1.8250e+01
6.5619e+00	4.8005e+00	2.1150e+01
7.7832e+00	5.7809e+00	2.5030e+01
9.5631e+00	7.4862e+00	3.0471e+01
1.2398e+01	1.0740e+01	3.8582e+01
