Material: main / Be / Rakic
Optical constants. A. D. Rakić, A. B. Djurišic, J. M. Elazar, and M. L. Majewski. Optical properties of metallic films for vertical-cavity optoelectronic devices, Appl. Opt. 37, 5271-5283 (1998)[Calculation script (Python)]
Comments: Fit of the experimental data from several sources to Brendel-Bormann (BB) model
wavelength (um)	n	k
2.0664e-01	1.1244e+00	2.6650e+00
2.0767e-01	1.1373e+00	2.6752e+00
2.0870e-01	1.1503e+00	2.6855e+00
2.0975e-01	1.1635e+00	2.6956e+00
2.1081e-01	1.1769e+00	2.7057e+00
2.1188e-01	1.1904e+00	2.7158e+00
2.1295e-01	1.2041e+00	2.7258e+00
2.1404e-01	1.2180e+00	2.7358e+00
2.1515e-01	1.2320e+00	2.7457e+00
2.1626e-01	1.2461e+00	2.7555e+00
2.1738e-01	1.2605e+00	2.7653e+00
2.1852e-01	1.2749e+00	2.7750e+00
2.1967e-01	1.2896e+00	2.7846e+00
2.2083e-01	1.3044e+00	2.7942e+00
2.2200e-01	1.3193e+00	2.8036e+00
2.2318e-01	1.3344e+00	2.8130e+00
2.2438e-01	1.3497e+00	2.8223e+00
2.2559e-01	1.3651e+00	2.8315e+00
2.2681e-01	1.3807e+00	2.8407e+00
2.2805e-01	1.3964e+00	2.8497e+00
2.2930e-01	1.4122e+00	2.8586e+00
2.3057e-01	1.4283e+00	2.8675e+00
2.3184e-01	1.4444e+00	2.8762e+00
2.3314e-01	1.4607e+00	2.8849e+00
2.3444e-01	1.4772e+00	2.8934e+00
2.3577e-01	1.4938e+00	2.9018e+00
2.3710e-01	1.5105e+00	2.9101e+00
2.3845e-01	1.5274e+00	2.9183e+00
2.3982e-01	1.5444e+00	2.9264e+00
2.4120e-01	1.5615e+00	2.9343e+00
2.4260e-01	1.5788e+00	2.9422e+00
2.4402e-01	1.5962e+00	2.9499e+00
2.4545e-01	1.6138e+00	2.9574e+00
2.4690e-01	1.6314e+00	2.9649e+00
2.4837e-01	1.6492e+00	2.9722e+00
2.4985e-01	1.6671e+00	2.9794e+00
2.5135e-01	1.6851e+00	2.9864e+00
2.5287e-01	1.7033e+00	2.9933e+00
2.5441e-01	1.7215e+00	3.0001e+00
2.5597e-01	1.7399e+00	3.0067e+00
2.5755e-01	1.7584e+00	3.0132e+00
2.5914e-01	1.7769e+00	3.0195e+00
2.6076e-01	1.7956e+00	3.0257e+00
2.6239e-01	1.8144e+00	3.0318e+00
2.6405e-01	1.8333e+00	3.0376e+00
2.6573e-01	1.8522e+00	3.0434e+00
2.6743e-01	1.8713e+00	3.0490e+00
2.6915e-01	1.8904e+00	3.0544e+00
2.7089e-01	1.9096e+00	3.0596e+00
2.7266e-01	1.9289e+00	3.0648e+00
2.7445e-01	1.9482e+00	3.0697e+00
2.7626e-01	1.9677e+00	3.0745e+00
2.7810e-01	1.9871e+00	3.0791e+00
2.7996e-01	2.0067e+00	3.0836e+00
2.8185e-01	2.0263e+00	3.0879e+00
2.8376e-01	2.0460e+00	3.0921e+00
2.8570e-01	2.0657e+00	3.0961e+00
2.8766e-01	2.0854e+00	3.0999e+00
2.8966e-01	2.1053e+00	3.1036e+00
2.9168e-01	2.1251e+00	3.1071e+00
2.9372e-01	2.1450e+00	3.1105e+00
2.9580e-01	2.1649e+00	3.1137e+00
2.9791e-01	2.1848e+00	3.1167e+00
3.0005e-01	2.2048e+00	3.1196e+00
3.0222e-01	2.2247e+00	3.1223e+00
3.0442e-01	2.2447e+00	3.1249e+00
3.0665e-01	2.2647e+00	3.1273e+00
3.0891e-01	2.2847e+00	3.1296e+00
3.1121e-01	2.3047e+00	3.1317e+00
3.1354e-01	2.3247e+00	3.1337e+00
3.1591e-01	2.3447e+00	3.1355e+00
3.1832e-01	2.3646e+00	3.1372e+00
3.2076e-01	2.3846e+00	3.1387e+00
3.2324e-01	2.4045e+00	3.1401e+00
3.2576e-01	2.4244e+00	3.1413e+00
3.2831e-01	2.4443e+00	3.1424e+00
3.3091e-01	2.4642e+00	3.1434e+00
3.3355e-01	2.4840e+00	3.1442e+00
3.3623e-01	2.5037e+00	3.1449e+00
3.3896e-01	2.5235e+00	3.1455e+00
3.4173e-01	2.5431e+00	3.1460e+00
3.4454e-01	2.5627e+00	3.1463e+00
3.4741e-01	2.5823e+00	3.1465e+00
3.5032e-01	2.6017e+00	3.1466e+00
3.5328e-01	2.6212e+00	3.1466e+00
3.5629e-01	2.6405e+00	3.1465e+00
3.5935e-01	2.6598e+00	3.1463e+00
3.6246e-01	2.6789e+00	3.1460e+00
3.6563e-01	2.6980e+00	3.1456e+00
3.6886e-01	2.7170e+00	3.1452e+00
3.7214e-01	2.7359e+00	3.1446e+00
3.7548e-01	2.7547e+00	3.1440e+00
3.7888e-01	2.7734e+00	3.1433e+00
3.8235e-01	2.7920e+00	3.1425e+00
3.8588e-01	2.8104e+00	3.1417e+00
3.8947e-01	2.8288e+00	3.1408e+00
3.9313e-01	2.8470e+00	3.1399e+00
3.9686e-01	2.8651e+00	3.1389e+00
4.0066e-01	2.8831e+00	3.1379e+00
4.0454e-01	2.9009e+00	3.1369e+00
4.0849e-01	2.9185e+00	3.1358e+00
4.1252e-01	2.9361e+00	3.1348e+00
4.1663e-01	2.9534e+00	3.1337e+00
4.2082e-01	2.9707e+00	3.1326e+00
4.2510e-01	2.9877e+00	3.1316e+00
4.2947e-01	3.0046e+00	3.1306e+00
4.3392e-01	3.0213e+00	3.1296e+00
4.3847e-01	3.0378e+00	3.1286e+00
4.4312e-01	3.0541e+00	3.1277e+00
4.4786e-01	3.0702e+00	3.1268e+00
4.5271e-01	3.0862e+00	3.1261e+00
4.5767e-01	3.1019e+00	3.1254e+00
4.6273e-01	3.1174e+00	3.1247e+00
4.6791e-01	3.1327e+00	3.1242e+00
4.7320e-01	3.1477e+00	3.1239e+00
4.7862e-01	3.1625e+00	3.1236e+00
4.8416e-01	3.1771e+00	3.1235e+00
4.8983e-01	3.1914e+00	3.1235e+00
4.9564e-01	3.2055e+00	3.1237e+00
5.0158e-01	3.2193e+00	3.1241e+00
5.0767e-01	3.2328e+00	3.1247e+00
5.1391e-01	3.2460e+00	3.1256e+00
5.2030e-01	3.2589e+00	3.1266e+00
5.2686e-01	3.2715e+00	3.1280e+00
5.3358e-01	3.2838e+00	3.1296e+00
5.4048e-01	3.2957e+00	3.1315e+00
5.4756e-01	3.3073e+00	3.1338e+00
5.5482e-01	3.3186e+00	3.1363e+00
5.6228e-01	3.3294e+00	3.1393e+00
5.6994e-01	3.3399e+00	3.1427e+00
5.7782e-01	3.3499e+00	3.1465e+00
5.8591e-01	3.3595e+00	3.1508e+00
5.9424e-01	3.3687e+00	3.1555e+00
6.0281e-01	3.3774e+00	3.1608e+00
6.1162e-01	3.3857e+00	3.1667e+00
6.2070e-01	3.3934e+00	3.1731e+00
6.3005e-01	3.4006e+00	3.1802e+00
6.3969e-01	3.4072e+00	3.1881e+00
6.4963e-01	3.4132e+00	3.1966e+00
6.5988e-01	3.4187e+00	3.2060e+00
6.7046e-01	3.4235e+00	3.2162e+00
6.8138e-01	3.4276e+00	3.2274e+00
6.9267e-01	3.4309e+00	3.2395e+00
7.0433e-01	3.4336e+00	3.2527e+00
7.1640e-01	3.4354e+00	3.2671e+00
7.2889e-01	3.4364e+00	3.2827e+00
7.4182e-01	3.4366e+00	3.2996e+00
7.5521e-01	3.4358e+00	3.3180e+00
7.6910e-01	3.4340e+00	3.3379e+00
7.8351e-01	3.4312e+00	3.3595e+00
7.9847e-01	3.4273e+00	3.3828e+00
8.1402e-01	3.4222e+00	3.4082e+00
8.3018e-01	3.4159e+00	3.4357e+00
8.4699e-01	3.4083e+00	3.4654e+00
8.6450e-01	3.3993e+00	3.4977e+00
8.8275e-01	3.3889e+00	3.5328e+00
9.0179e-01	3.3769e+00	3.5708e+00
9.2166e-01	3.3634e+00	3.6120e+00
9.4243e-01	3.3481e+00	3.6569e+00
9.6416e-01	3.3311e+00	3.7056e+00
9.8691e-01	3.3122e+00	3.7586e+00
1.0108e+00	3.2913e+00	3.8163e+00
1.0358e+00	3.2684e+00	3.8791e+00
1.0621e+00	3.2434e+00	3.9476e+00
1.0898e+00	3.2162e+00	4.0224e+00
1.1190e+00	3.1867e+00	4.1040e+00
1.1497e+00	3.1550e+00	4.1933e+00
1.1822e+00	3.1209e+00	4.2909e+00
1.2166e+00	3.0846e+00	4.3977e+00
1.2531e+00	3.0459e+00	4.5148e+00
1.2918e+00	3.0051e+00	4.6432e+00
1.3329e+00	2.9621e+00	4.7840e+00
1.3768e+00	2.9172e+00	4.9386e+00
1.4237e+00	2.8706e+00	5.1084e+00
1.4739e+00	2.8224e+00	5.2951e+00
1.5277e+00	2.7731e+00	5.5003e+00
1.5857e+00	2.7230e+00	5.7261e+00
1.6482e+00	2.6725e+00	5.9748e+00
1.7158e+00	2.6221e+00	6.2488e+00
1.7892e+00	2.5723e+00	6.5510e+00
1.8692e+00	2.5239e+00	6.8848e+00
1.9566e+00	2.4774e+00	7.2542e+00
2.0527e+00	2.4337e+00	7.6636e+00
2.1586e+00	2.3936e+00	8.1188e+00
2.2761e+00	2.3582e+00	8.6264e+00
2.4071e+00	2.3286e+00	9.1946e+00
2.5541e+00	2.3066e+00	9.8338e+00
2.7203e+00	2.2940e+00	1.0557e+01
2.9095e+00	2.2933e+00	1.1380e+01
3.1271e+00	2.3081e+00	1.2326e+01
3.3798e+00	2.3433e+00	1.3421e+01
3.6770e+00	2.4059e+00	1.4705e+01
4.0315e+00	2.5064e+00	1.6230e+01
4.4616e+00	2.6612e+00	1.8071e+01
4.9945e+00	2.8966e+00	2.0336e+01
5.6719e+00	3.2578e+00	2.3193e+01
6.5619e+00	3.8265e+00	2.6907e+01
7.7832e+00	4.7637e+00	3.1928e+01
9.5631e+00	6.4208e+00	3.9082e+01
1.2398e+01	9.6804e+00	5.0038e+01
