Material: main / Pd / Rakic
Optical constants. A. D. Rakić, A. B. Djurišic, J. M. Elazar, and M. L. Majewski. Optical properties of metallic films for vertical-cavity optoelectronic devices, Appl. Opt. 37, 5271-5283 (1998)[Calculation script (Python)]
Comments: Fit of the experimental data from several sources to Brendel-Bormann (BB) model
wavelength (um)	n	k
2.0664e-01	1.0116e+00	2.0080e+00
2.0767e-01	1.0194e+00	2.0083e+00
2.0870e-01	1.0271e+00	2.0085e+00
2.0975e-01	1.0345e+00	2.0086e+00
2.1081e-01	1.0418e+00	2.0087e+00
2.1188e-01	1.0488e+00	2.0088e+00
2.1295e-01	1.0557e+00	2.0088e+00
2.1404e-01	1.0623e+00	2.0088e+00
2.1515e-01	1.0687e+00	2.0087e+00
2.1626e-01	1.0750e+00	2.0087e+00
2.1738e-01	1.0809e+00	2.0086e+00
2.1852e-01	1.0867e+00	2.0086e+00
2.1967e-01	1.0922e+00	2.0085e+00
2.2083e-01	1.0976e+00	2.0085e+00
2.2200e-01	1.1026e+00	2.0085e+00
2.2318e-01	1.1075e+00	2.0086e+00
2.2438e-01	1.1121e+00	2.0087e+00
2.2559e-01	1.1165e+00	2.0089e+00
2.2681e-01	1.1207e+00	2.0091e+00
2.2805e-01	1.1246e+00	2.0095e+00
2.2930e-01	1.1283e+00	2.0099e+00
2.3057e-01	1.1318e+00	2.0105e+00
2.3184e-01	1.1350e+00	2.0111e+00
2.3314e-01	1.1380e+00	2.0119e+00
2.3444e-01	1.1408e+00	2.0129e+00
2.3577e-01	1.1433e+00	2.0140e+00
2.3710e-01	1.1457e+00	2.0152e+00
2.3845e-01	1.1478e+00	2.0166e+00
2.3982e-01	1.1497e+00	2.0183e+00
2.4120e-01	1.1514e+00	2.0201e+00
2.4260e-01	1.1529e+00	2.0221e+00
2.4402e-01	1.1541e+00	2.0243e+00
2.4545e-01	1.1552e+00	2.0268e+00
2.4690e-01	1.1562e+00	2.0295e+00
2.4837e-01	1.1569e+00	2.0325e+00
2.4985e-01	1.1575e+00	2.0357e+00
2.5135e-01	1.1579e+00	2.0392e+00
2.5287e-01	1.1581e+00	2.0430e+00
2.5441e-01	1.1582e+00	2.0471e+00
2.5597e-01	1.1581e+00	2.0514e+00
2.5755e-01	1.1580e+00	2.0561e+00
2.5914e-01	1.1577e+00	2.0611e+00
2.6076e-01	1.1573e+00	2.0664e+00
2.6239e-01	1.1568e+00	2.0721e+00
2.6405e-01	1.1562e+00	2.0781e+00
2.6573e-01	1.1555e+00	2.0844e+00
2.6743e-01	1.1548e+00	2.0911e+00
2.6915e-01	1.1540e+00	2.0981e+00
2.7089e-01	1.1532e+00	2.1055e+00
2.7266e-01	1.1523e+00	2.1133e+00
2.7445e-01	1.1515e+00	2.1215e+00
2.7626e-01	1.1506e+00	2.1300e+00
2.7810e-01	1.1497e+00	2.1389e+00
2.7996e-01	1.1489e+00	2.1482e+00
2.8185e-01	1.1481e+00	2.1578e+00
2.8376e-01	1.1473e+00	2.1679e+00
2.8570e-01	1.1466e+00	2.1783e+00
2.8766e-01	1.1459e+00	2.1892e+00
2.8966e-01	1.1454e+00	2.2004e+00
2.9168e-01	1.1449e+00	2.2120e+00
2.9372e-01	1.1445e+00	2.2240e+00
2.9580e-01	1.1443e+00	2.2363e+00
2.9791e-01	1.1441e+00	2.2491e+00
3.0005e-01	1.1442e+00	2.2622e+00
3.0222e-01	1.1443e+00	2.2757e+00
3.0442e-01	1.1446e+00	2.2896e+00
3.0665e-01	1.1451e+00	2.3038e+00
3.0891e-01	1.1458e+00	2.3184e+00
3.1121e-01	1.1466e+00	2.3334e+00
3.1354e-01	1.1477e+00	2.3487e+00
3.1591e-01	1.1489e+00	2.3644e+00
3.1832e-01	1.1504e+00	2.3804e+00
3.2076e-01	1.1520e+00	2.3968e+00
3.2324e-01	1.1539e+00	2.4135e+00
3.2576e-01	1.1560e+00	2.4306e+00
3.2831e-01	1.1584e+00	2.4480e+00
3.3091e-01	1.1610e+00	2.4657e+00
3.3355e-01	1.1638e+00	2.4837e+00
3.3623e-01	1.1669e+00	2.5021e+00
3.3896e-01	1.1702e+00	2.5207e+00
3.4173e-01	1.1738e+00	2.5397e+00
3.4454e-01	1.1776e+00	2.5590e+00
3.4741e-01	1.1818e+00	2.5786e+00
3.5032e-01	1.1861e+00	2.5985e+00
3.5328e-01	1.1908e+00	2.6187e+00
3.5629e-01	1.1957e+00	2.6392e+00
3.5935e-01	1.2009e+00	2.6600e+00
3.6246e-01	1.2063e+00	2.6811e+00
3.6563e-01	1.2120e+00	2.7024e+00
3.6886e-01	1.2180e+00	2.7241e+00
3.7214e-01	1.2243e+00	2.7460e+00
3.7548e-01	1.2308e+00	2.7683e+00
3.7888e-01	1.2376e+00	2.7908e+00
3.8235e-01	1.2447e+00	2.8136e+00
3.8588e-01	1.2521e+00	2.8368e+00
3.8947e-01	1.2597e+00	2.8602e+00
3.9313e-01	1.2676e+00	2.8839e+00
3.9686e-01	1.2758e+00	2.9079e+00
4.0066e-01	1.2842e+00	2.9322e+00
4.0454e-01	1.2929e+00	2.9568e+00
4.0849e-01	1.3019e+00	2.9818e+00
4.1252e-01	1.3112e+00	3.0070e+00
4.1663e-01	1.3207e+00	3.0326e+00
4.2082e-01	1.3305e+00	3.0585e+00
4.2510e-01	1.3406e+00	3.0848e+00
4.2947e-01	1.3510e+00	3.1114e+00
4.3392e-01	1.3616e+00	3.1383e+00
4.3847e-01	1.3725e+00	3.1656e+00
4.4312e-01	1.3836e+00	3.1933e+00
4.4786e-01	1.3950e+00	3.2214e+00
4.5271e-01	1.4068e+00	3.2498e+00
4.5767e-01	1.4187e+00	3.2787e+00
4.6273e-01	1.4310e+00	3.3080e+00
4.6791e-01	1.4435e+00	3.3377e+00
4.7320e-01	1.4563e+00	3.3679e+00
4.7862e-01	1.4694e+00	3.3985e+00
4.8416e-01	1.4828e+00	3.4296e+00
4.8983e-01	1.4964e+00	3.4612e+00
4.9564e-01	1.5104e+00	3.4933e+00
5.0158e-01	1.5246e+00	3.5260e+00
5.0767e-01	1.5391e+00	3.5591e+00
5.1391e-01	1.5539e+00	3.5929e+00
5.2030e-01	1.5690e+00	3.6272e+00
5.2686e-01	1.5844e+00	3.6622e+00
5.3358e-01	1.6002e+00	3.6978e+00
5.4048e-01	1.6162e+00	3.7340e+00
5.4756e-01	1.6325e+00	3.7710e+00
5.5482e-01	1.6492e+00	3.8086e+00
5.6228e-01	1.6662e+00	3.8470e+00
5.6994e-01	1.6835e+00	3.8862e+00
5.7782e-01	1.7012e+00	3.9262e+00
5.8591e-01	1.7192e+00	3.9670e+00
5.9424e-01	1.7375e+00	4.0087e+00
6.0281e-01	1.7562e+00	4.0513e+00
6.1162e-01	1.7753e+00	4.0949e+00
6.2070e-01	1.7947e+00	4.1395e+00
6.3005e-01	1.8145e+00	4.1851e+00
6.3969e-01	1.8347e+00	4.2318e+00
6.4963e-01	1.8553e+00	4.2797e+00
6.5988e-01	1.8762e+00	4.3288e+00
6.7046e-01	1.8976e+00	4.3791e+00
6.8138e-01	1.9194e+00	4.4308e+00
6.9267e-01	1.9416e+00	4.4838e+00
7.0433e-01	1.9643e+00	4.5384e+00
7.1640e-01	1.9873e+00	4.5945e+00
7.2889e-01	2.0109e+00	4.6522e+00
7.4182e-01	2.0349e+00	4.7117e+00
7.5521e-01	2.0594e+00	4.7729e+00
7.6910e-01	2.0844e+00	4.8362e+00
7.8351e-01	2.1098e+00	4.9014e+00
7.9847e-01	2.1359e+00	4.9689e+00
8.1402e-01	2.1624e+00	5.0386e+00
8.3018e-01	2.1895e+00	5.1109e+00
8.4699e-01	2.2172e+00	5.1857e+00
8.6450e-01	2.2455e+00	5.2634e+00
8.8275e-01	2.2744e+00	5.3440e+00
9.0179e-01	2.3040e+00	5.4278e+00
9.2166e-01	2.3342e+00	5.5151e+00
9.4243e-01	2.3653e+00	5.6061e+00
9.6416e-01	2.3971e+00	5.7010e+00
9.8691e-01	2.4298e+00	5.8002e+00
1.0108e+00	2.4635e+00	5.9040e+00
1.0358e+00	2.4981e+00	6.0128e+00
1.0621e+00	2.5340e+00	6.1269e+00
1.0898e+00	2.5710e+00	6.2468e+00
1.1190e+00	2.6095e+00	6.3730e+00
1.1497e+00	2.6495e+00	6.5060e+00
1.1822e+00	2.6913e+00	6.6463e+00
1.2166e+00	2.7352e+00	6.7947e+00
1.2531e+00	2.7815e+00	6.9517e+00
1.2918e+00	2.8304e+00	7.1182e+00
1.3329e+00	2.8826e+00	7.2948e+00
1.3768e+00	2.9384e+00	7.4824e+00
1.4237e+00	2.9985e+00	7.6818e+00
1.4739e+00	3.0635e+00	7.8939e+00
1.5277e+00	3.1344e+00	8.1196e+00
1.5857e+00	3.2119e+00	8.3595e+00
1.6482e+00	3.2969e+00	8.6143e+00
1.7158e+00	3.3902e+00	8.8844e+00
1.7892e+00	3.4924e+00	9.1700e+00
1.8692e+00	3.6034e+00	9.4708e+00
1.9566e+00	3.7222e+00	9.7864e+00
2.0527e+00	3.8460e+00	1.0117e+01
2.1586e+00	3.9698e+00	1.0462e+01
2.2761e+00	4.0855e+00	1.0825e+01
2.4071e+00	4.1819e+00	1.1213e+01
2.5541e+00	4.2456e+00	1.1640e+01
2.7203e+00	4.2635e+00	1.2128e+01
2.9095e+00	4.2261e+00	1.2711e+01
3.1271e+00	4.1310e+00	1.3432e+01
3.3798e+00	3.9852e+00	1.4340e+01
3.6770e+00	3.8042e+00	1.5494e+01
4.0315e+00	3.6080e+00	1.6957e+01
4.4616e+00	3.4172e+00	1.8811e+01
4.9945e+00	3.2513e+00	2.1171e+01
5.6719e+00	3.1294e+00	2.4218e+01
6.5619e+00	3.0770e+00	2.8248e+01
7.7832e+00	3.1399e+00	3.3786e+01
9.5631e+00	3.4217e+00	4.1843e+01
1.2398e+01	4.2048e+00	5.4622e+01
