Material: main / Ni / Rakic
Optical constants. A. D. Rakić, A. B. Djurišic, J. M. Elazar, and M. L. Majewski. Optical properties of metallic films for vertical-cavity optoelectronic devices, Appl. Opt. 37, 5271-5283 (1998)[Calculation script (Python)]
Comments: Fit of the experimental data from several sources to Brendel-Bormann (BB) model
wavelength (um)	n	k
2.0664e-01	1.2241e+00	1.6772e+00
2.0767e-01	1.2259e+00	1.6868e+00
2.0870e-01	1.2278e+00	1.6965e+00
2.0975e-01	1.2301e+00	1.7065e+00
2.1081e-01	1.2327e+00	1.7166e+00
2.1188e-01	1.2355e+00	1.7269e+00
2.1295e-01	1.2387e+00	1.7373e+00
2.1404e-01	1.2422e+00	1.7478e+00
2.1515e-01	1.2460e+00	1.7585e+00
2.1626e-01	1.2502e+00	1.7693e+00
2.1738e-01	1.2548e+00	1.7802e+00
2.1852e-01	1.2597e+00	1.7911e+00
2.1967e-01	1.2650e+00	1.8021e+00
2.2083e-01	1.2707e+00	1.8131e+00
2.2200e-01	1.2768e+00	1.8241e+00
2.2318e-01	1.2832e+00	1.8351e+00
2.2438e-01	1.2901e+00	1.8461e+00
2.2559e-01	1.2974e+00	1.8570e+00
2.2681e-01	1.3051e+00	1.8678e+00
2.2805e-01	1.3131e+00	1.8786e+00
2.2930e-01	1.3216e+00	1.8891e+00
2.3057e-01	1.3305e+00	1.8995e+00
2.3184e-01	1.3398e+00	1.9098e+00
2.3314e-01	1.3494e+00	1.9198e+00
2.3444e-01	1.3594e+00	1.9295e+00
2.3577e-01	1.3698e+00	1.9390e+00
2.3710e-01	1.3805e+00	1.9482e+00
2.3845e-01	1.3915e+00	1.9570e+00
2.3982e-01	1.4028e+00	1.9655e+00
2.4120e-01	1.4145e+00	1.9737e+00
2.4260e-01	1.4263e+00	1.9814e+00
2.4402e-01	1.4384e+00	1.9888e+00
2.4545e-01	1.4507e+00	1.9956e+00
2.4690e-01	1.4632e+00	2.0021e+00
2.4837e-01	1.4758e+00	2.0081e+00
2.4985e-01	1.4885e+00	2.0135e+00
2.5135e-01	1.5013e+00	2.0185e+00
2.5287e-01	1.5141e+00	2.0230e+00
2.5441e-01	1.5269e+00	2.0270e+00
2.5597e-01	1.5396e+00	2.0305e+00
2.5755e-01	1.5523e+00	2.0334e+00
2.5914e-01	1.5648e+00	2.0358e+00
2.6076e-01	1.5771e+00	2.0378e+00
2.6239e-01	1.5893e+00	2.0392e+00
2.6405e-01	1.6012e+00	2.0402e+00
2.6573e-01	1.6127e+00	2.0406e+00
2.6743e-01	1.6240e+00	2.0407e+00
2.6915e-01	1.6348e+00	2.0403e+00
2.7089e-01	1.6453e+00	2.0395e+00
2.7266e-01	1.6553e+00	2.0383e+00
2.7445e-01	1.6648e+00	2.0368e+00
2.7626e-01	1.6738e+00	2.0350e+00
2.7810e-01	1.6822e+00	2.0329e+00
2.7996e-01	1.6901e+00	2.0306e+00
2.8185e-01	1.6973e+00	2.0280e+00
2.8376e-01	1.7039e+00	2.0254e+00
2.8570e-01	1.7098e+00	2.0227e+00
2.8766e-01	1.7151e+00	2.0199e+00
2.8966e-01	1.7197e+00	2.0171e+00
2.9168e-01	1.7237e+00	2.0144e+00
2.9372e-01	1.7269e+00	2.0117e+00
2.9580e-01	1.7294e+00	2.0093e+00
2.9791e-01	1.7312e+00	2.0070e+00
3.0005e-01	1.7324e+00	2.0051e+00
3.0222e-01	1.7328e+00	2.0034e+00
3.0442e-01	1.7326e+00	2.0021e+00
3.0665e-01	1.7317e+00	2.0013e+00
3.0891e-01	1.7303e+00	2.0009e+00
3.1121e-01	1.7282e+00	2.0010e+00
3.1354e-01	1.7255e+00	2.0017e+00
3.1591e-01	1.7223e+00	2.0031e+00
3.1832e-01	1.7186e+00	2.0051e+00
3.2076e-01	1.7144e+00	2.0078e+00
3.2324e-01	1.7098e+00	2.0112e+00
3.2576e-01	1.7048e+00	2.0154e+00
3.2831e-01	1.6994e+00	2.0204e+00
3.3091e-01	1.6938e+00	2.0262e+00
3.3355e-01	1.6879e+00	2.0329e+00
3.3623e-01	1.6818e+00	2.0405e+00
3.3896e-01	1.6756e+00	2.0489e+00
3.4173e-01	1.6692e+00	2.0582e+00
3.4454e-01	1.6628e+00	2.0685e+00
3.4741e-01	1.6564e+00	2.0796e+00
3.5032e-01	1.6501e+00	2.0917e+00
3.5328e-01	1.6438e+00	2.1047e+00
3.5629e-01	1.6377e+00	2.1186e+00
3.5935e-01	1.6318e+00	2.1334e+00
3.6246e-01	1.6261e+00	2.1491e+00
3.6563e-01	1.6207e+00	2.1656e+00
3.6886e-01	1.6156e+00	2.1830e+00
3.7214e-01	1.6108e+00	2.2013e+00
3.7548e-01	1.6064e+00	2.2204e+00
3.7888e-01	1.6025e+00	2.2402e+00
3.8235e-01	1.5990e+00	2.2609e+00
3.8588e-01	1.5959e+00	2.2823e+00
3.8947e-01	1.5934e+00	2.3045e+00
3.9313e-01	1.5914e+00	2.3273e+00
3.9686e-01	1.5899e+00	2.3509e+00
4.0066e-01	1.5889e+00	2.3751e+00
4.0454e-01	1.5886e+00	2.4000e+00
4.0849e-01	1.5888e+00	2.4255e+00
4.1252e-01	1.5896e+00	2.4516e+00
4.1663e-01	1.5910e+00	2.4782e+00
4.2082e-01	1.5930e+00	2.5055e+00
4.2510e-01	1.5956e+00	2.5332e+00
4.2947e-01	1.5989e+00	2.5615e+00
4.3392e-01	1.6027e+00	2.5904e+00
4.3847e-01	1.6072e+00	2.6197e+00
4.4312e-01	1.6124e+00	2.6495e+00
4.4786e-01	1.6181e+00	2.6797e+00
4.5271e-01	1.6245e+00	2.7104e+00
4.5767e-01	1.6316e+00	2.7416e+00
4.6273e-01	1.6392e+00	2.7732e+00
4.6791e-01	1.6475e+00	2.8053e+00
4.7320e-01	1.6564e+00	2.8378e+00
4.7862e-01	1.6659e+00	2.8707e+00
4.8416e-01	1.6761e+00	2.9041e+00
4.8983e-01	1.6869e+00	2.9378e+00
4.9564e-01	1.6983e+00	2.9720e+00
5.0158e-01	1.7104e+00	3.0066e+00
5.0767e-01	1.7230e+00	3.0417e+00
5.1391e-01	1.7363e+00	3.0772e+00
5.2030e-01	1.7503e+00	3.1131e+00
5.2686e-01	1.7648e+00	3.1494e+00
5.3358e-01	1.7800e+00	3.1863e+00
5.4048e-01	1.7958e+00	3.2235e+00
5.4756e-01	1.8122e+00	3.2613e+00
5.5482e-01	1.8292e+00	3.2995e+00
5.6228e-01	1.8469e+00	3.3382e+00
5.6994e-01	1.8651e+00	3.3774e+00
5.7782e-01	1.8841e+00	3.4171e+00
5.8591e-01	1.9036e+00	3.4573e+00
5.9424e-01	1.9238e+00	3.4982e+00
6.0281e-01	1.9446e+00	3.5395e+00
6.1162e-01	1.9661e+00	3.5815e+00
6.2070e-01	1.9881e+00	3.6241e+00
6.3005e-01	2.0109e+00	3.6673e+00
6.3969e-01	2.0343e+00	3.7112e+00
6.4963e-01	2.0583e+00	3.7558e+00
6.5988e-01	2.0830e+00	3.8011e+00
6.7046e-01	2.1083e+00	3.8472e+00
6.8138e-01	2.1343e+00	3.8941e+00
6.9267e-01	2.1610e+00	3.9418e+00
7.0433e-01	2.1883e+00	3.9904e+00
7.1640e-01	2.2164e+00	4.0399e+00
7.2889e-01	2.2450e+00	4.0904e+00
7.4182e-01	2.2744e+00	4.1419e+00
7.5521e-01	2.3045e+00	4.1945e+00
7.6910e-01	2.3352e+00	4.2482e+00
7.8351e-01	2.3667e+00	4.3031e+00
7.9847e-01	2.3988e+00	4.3594e+00
8.1402e-01	2.4317e+00	4.4170e+00
8.3018e-01	2.4652e+00	4.4760e+00
8.4699e-01	2.4995e+00	4.5367e+00
8.6450e-01	2.5344e+00	4.5989e+00
8.8275e-01	2.5701e+00	4.6630e+00
9.0179e-01	2.6065e+00	4.7289e+00
9.2166e-01	2.6436e+00	4.7969e+00
9.4243e-01	2.6813e+00	4.8671e+00
9.6416e-01	2.7198e+00	4.9397e+00
9.8691e-01	2.7591e+00	5.0148e+00
1.0108e+00	2.7989e+00	5.0926e+00
1.0358e+00	2.8395e+00	5.1734e+00
1.0621e+00	2.8808e+00	5.2575e+00
1.0898e+00	2.9227e+00	5.3451e+00
1.1190e+00	2.9653e+00	5.4365e+00
1.1497e+00	3.0085e+00	5.5321e+00
1.1822e+00	3.0523e+00	5.6323e+00
1.2166e+00	3.0966e+00	5.7376e+00
1.2531e+00	3.1415e+00	5.8484e+00
1.2918e+00	3.1869e+00	5.9654e+00
1.3329e+00	3.2328e+00	6.0892e+00
1.3768e+00	3.2790e+00	6.2206e+00
1.4237e+00	3.3256e+00	6.3605e+00
1.4739e+00	3.3724e+00	6.5098e+00
1.5277e+00	3.4194e+00	6.6697e+00
1.5857e+00	3.4664e+00	6.8417e+00
1.6482e+00	3.5134e+00	7.0273e+00
1.7158e+00	3.5601e+00	7.2284e+00
1.7892e+00	3.6066e+00	7.4473e+00
1.8692e+00	3.6525e+00	7.6865e+00
1.9566e+00	3.6978e+00	7.9495e+00
2.0527e+00	3.7423e+00	8.2399e+00
2.1586e+00	3.7857e+00	8.5626e+00
2.2761e+00	3.8279e+00	8.9234e+00
2.4071e+00	3.8688e+00	9.3295e+00
2.5541e+00	3.9083e+00	9.7900e+00
2.7203e+00	3.9466e+00	1.0316e+01
2.9095e+00	3.9839e+00	1.0923e+01
3.1271e+00	4.0209e+00	1.1630e+01
3.3798e+00	4.0590e+00	1.2463e+01
3.6770e+00	4.1006e+00	1.3455e+01
4.0315e+00	4.1498e+00	1.4655e+01
4.4616e+00	4.2138e+00	1.6131e+01
4.9945e+00	4.3052e+00	1.7982e+01
5.6719e+00	4.4466e+00	2.0360e+01
6.5619e+00	4.6815e+00	2.3513e+01
7.7832e+00	5.0983e+00	2.7864e+01
9.5631e+00	5.8991e+00	3.4209e+01
1.2398e+01	7.6193e+00	4.4231e+01
