Material: organic / (C2H6OSi)n - polydimethylsiloxane / Czapla
Optical constants. Czapla and Hanssen. Under peer review, 2021
Comments: Sylgard 184 Silicone Elastomer Kit was mixed in a 10:1 mass ratio (base:curing agent) and cured at ambient temperature. Values of the extinction coefficient less than the expanded uncertainty (k=2) are reported as zero.
Specs: {"n_absolute": true, "wavelength_vacuum": true}
wavelength (um)	n	k
0.250	1.484	8.584e-06
0.274	1.468	7.090e-06
0.298	1.459	6.392e-06
0.322	1.448	4.396e-06
0.346	1.440	3.938e-06
0.370	1.435	1.523e-06
0.394	1.432	2.737e-07
0.418	1.429	1.558e-07
0.442	1.426	0.000e+00
0.466	1.423	0.000e+00
0.490	1.422	0.000e+00
0.514	1.420	0.000e+00
0.538	1.418	0.000e+00
0.562	1.417	0.000e+00
0.586	1.416	0.000e+00
0.610	1.415	0.000e+00
0.634	1.414	0.000e+00
0.658	1.413	0.000e+00
0.682	1.412	0.000e+00
0.706	1.412	0.000e+00
0.730	1.411	0.000e+00
0.754	1.411	0.000e+00
0.778	1.410	0.000e+00
0.802	1.410	0.000e+00
0.826	1.409	0.000e+00
0.850	1.409	0.000e+00
0.874	1.408	3.471e-07
0.898	1.408	7.487e-07
0.922	1.407	4.925e-07
0.946	1.407	3.300e-07
0.970	1.407	3.306e-07
0.994	1.406	4.377e-07
1.018	1.406	6.988e-07
1.042	1.406	4.052e-07
1.066	1.405	4.318e-07
1.090	1.405	6.378e-07
1.114	1.405	5.024e-07
1.138	1.405	1.501e-06
1.152	1.407	3.097e-06
1.155	1.407	3.161e-06
1.158	1.407	3.124e-06
1.161	1.407	2.988e-06
1.164	1.407	2.904e-06
1.167	1.406	3.261e-06
1.170	1.406	4.078e-06
1.174	1.406	5.363e-06
1.177	1.406	7.627e-06
1.180	1.406	1.143e-05
1.183	1.406	1.577e-05
1.186	1.406	1.694e-05
1.190	1.406	1.508e-05
1.193	1.406	9.287e-06
1.196	1.406	4.689e-06
1.200	1.406	2.811e-06
1.203	1.406	1.948e-06
1.206	1.406	1.666e-06
1.210	1.406	1.708e-06
1.213	1.406	1.964e-06
1.217	1.406	1.918e-06
1.220	1.406	1.512e-06
1.223	1.406	1.102e-06
1.227	1.406	7.915e-07
1.230	1.406	6.128e-07
1.234	1.406	5.654e-07
1.237	1.405	5.536e-07
1.241	1.405	5.815e-07
1.245	1.405	5.967e-07
1.248	1.405	5.944e-07
1.252	1.405	5.935e-07
1.255	1.405	5.938e-07
1.259	1.405	5.938e-07
1.263	1.405	6.041e-07
1.266	1.405	6.316e-07
1.270	1.405	6.535e-07
1.274	1.405	6.836e-07
1.278	1.405	7.021e-07
1.281	1.405	6.973e-07
1.285	1.406	6.713e-07
1.289	1.403	7.118e-07
1.293	1.406	6.698e-07
1.297	1.403	7.083e-07
1.301	1.404	6.875e-07
1.305	1.403	6.657e-07
1.309	1.404	6.169e-07
1.313	1.403	5.948e-07
1.317	1.407	5.512e-07
1.321	1.399	6.769e-07
1.325	1.400	7.050e-07
1.329	1.405	7.139e-07
1.333	1.404	8.247e-07
1.337	1.402	9.797e-07
1.341	1.402	1.175e-06
1.345	1.404	1.355e-06
1.349	1.403	1.687e-06
1.354	1.404	2.177e-06
1.358	1.404	2.995e-06
1.362	1.403	4.254e-06
1.367	1.402	6.779e-06
1.371	1.403	8.731e-06
1.375	1.403	8.153e-06
1.380	1.405	8.879e-06
1.384	1.404	8.906e-06
1.389	1.405	1.022e-05
1.393	1.404	1.274e-05
1.398	1.403	1.426e-05
1.402	1.402	1.452e-05
1.407	1.403	1.373e-05
1.411	1.405	1.105e-05
1.416	1.402	7.816e-06
1.420	1.402	6.055e-06
1.425	1.403	5.767e-06
1.430	1.404	5.015e-06
1.435	1.403	4.497e-06
1.439	1.402	3.970e-06
1.444	1.400	3.383e-06
1.449	1.402	2.801e-06
1.454	1.403	2.664e-06
1.459	1.404	2.774e-06
1.464	1.402	3.027e-06
1.469	1.403	2.775e-06
1.474	1.403	2.715e-06
1.479	1.403	2.611e-06
1.484	1.403	2.754e-06
1.489	1.403	2.843e-06
1.494	1.403	2.848e-06
1.499	1.403	3.400e-06
1.505	1.403	4.104e-06
1.510	1.402	4.932e-06
1.515	1.402	5.848e-06
1.520	1.403	6.071e-06
1.526	1.402	6.199e-06
1.531	1.402	6.071e-06
1.537	1.403	6.032e-06
1.542	1.403	6.086e-06
1.548	1.402	6.053e-06
1.553	1.403	5.849e-06
1.559	1.402	5.236e-06
1.565	1.402	4.405e-06
1.570	1.403	3.504e-06
1.576	1.403	2.816e-06
1.582	1.402	2.442e-06
1.587	1.403	2.273e-06
1.593	1.402	2.239e-06
1.599	1.402	2.259e-06
1.605	1.402	2.316e-06
1.611	1.401	2.483e-06
1.617	1.403	2.753e-06
1.623	1.402	3.111e-06
1.629	1.402	3.754e-06
1.636	1.402	4.690e-06
1.642	1.401	6.435e-06
1.648	1.402	8.915e-06
1.654	1.401	9.049e-06
1.661	1.402	9.066e-06
1.667	1.402	9.153e-06
1.674	1.401	1.111e-05
1.680	1.401	1.981e-05
1.687	1.400	5.972e-05
1.693	1.401	7.545e-05
1.700	1.402	7.629e-05
1.707	1.401	6.525e-05
1.713	1.402	2.520e-05
1.720	1.401	2.270e-05
1.727	1.401	3.561e-05
1.734	1.401	6.425e-05
1.741	1.402	8.808e-05
1.748	1.401	9.819e-05
1.755	1.402	5.882e-05
1.762	1.401	3.233e-05
1.770	1.401	2.382e-05
1.777	1.401	2.586e-05
1.784	1.402	3.483e-05
1.792	1.401	2.115e-05
1.799	1.401	1.175e-05
1.807	1.400	7.997e-06
1.814	1.400	6.431e-06
1.822	1.400	6.986e-06
1.829	1.400	1.228e-05
1.837	1.400	2.346e-05
1.845	1.400	1.712e-05
1.853	1.400	2.499e-05
1.861	1.400	1.035e-05
1.869	1.400	5.655e-06
1.877	1.400	4.697e-06
1.885	1.400	4.552e-06
1.894	1.400	4.836e-06
1.902	1.399	5.281e-06
1.910	1.400	6.011e-06
1.919	1.400	6.710e-06
1.927	1.400	7.284e-06
1.936	1.399	8.056e-06
1.945	1.400	8.276e-06
1.954	1.399	8.600e-06
1.962	1.399	1.131e-05
1.971	1.399	1.263e-05
1.980	1.399	1.249e-05
1.990	1.398	1.239e-05
1.999	1.398	1.156e-05
2.008	1.399	1.040e-05
2.017	1.399	1.228e-05
2.027	1.399	1.025e-05
2.036	1.399	1.121e-05
2.046	1.398	1.030e-05
2.056	1.398	8.672e-06
2.066	1.398	8.544e-06
2.076	1.398	8.058e-06
2.086	1.398	8.376e-06
2.096	1.398	9.153e-06
2.106	1.398	9.798e-06
2.116	1.398	1.082e-05
2.127	1.398	1.263e-05
2.137	1.397	1.567e-05
2.148	1.397	2.346e-05
2.159	1.397	2.535e-05
2.169	1.397	2.985e-05
2.180	1.397	4.002e-05
2.191	1.397	5.420e-05
2.203	1.397	6.709e-05
2.214	1.397	8.534e-05
2.225	1.397	9.667e-05
2.237	1.397	1.078e-04
2.248	1.397	1.346e-04
2.260	1.396	1.725e-04
2.272	1.396	2.595e-04
2.284	1.396	4.177e-04
2.296	1.397	6.946e-04
2.308	1.396	2.735e-04
2.321	1.396	1.563e-04
2.333	1.396	1.168e-04
2.346	1.396	1.149e-04
2.359	1.396	1.912e-04
2.372	1.396	4.650e-04
2.385	1.396	1.779e-04
2.398	1.396	2.086e-04
2.412	1.396	1.693e-04
2.425	1.395	1.152e-04
2.439	1.395	1.326e-04
2.453	1.395	1.931e-04
2.467	1.395	2.578e-04
2.481	1.395	2.128e-04
2.495	1.395	1.654e-04
2.510	1.395	1.426e-04
2.524	1.394	1.225e-04
2.539	1.394	1.144e-04
2.554	1.394	1.151e-04
2.569	1.394	1.283e-04
2.585	1.394	1.458e-04
2.600	1.393	2.362e-04
2.616	1.393	3.438e-04
2.632	1.394	4.375e-04
2.648	1.393	6.900e-04
2.664	1.393	7.799e-04
2.681	1.392	7.277e-04
2.698	1.393	1.121e-03
2.715	1.393	1.005e-03
2.732	1.393	1.074e-03
2.749	1.393	1.206e-03
2.767	1.393	1.085e-03
2.785	1.392	1.134e-03
2.803	1.393	1.021e-03
2.821	1.393	9.433e-04
2.839	1.392	9.089e-04
2.858	1.392	8.283e-04
2.877	1.392	7.300e-04
2.897	1.392	6.199e-04
2.916	1.392	5.208e-04
2.936	1.391	4.501e-04
2.956	1.391	4.019e-04
2.976	1.391	3.835e-04
2.997	1.391	3.681e-04
3.018	1.390	3.499e-04
3.039	1.390	3.460e-04
3.061	1.390	3.576e-04
3.082	1.390	3.908e-04
3.105	1.389	4.452e-04
3.127	1.389	5.151e-04
3.150	1.388	5.923e-04
3.173	1.388	7.494e-04
3.197	1.387	1.055e-03
3.220	1.387	1.303e-03
3.245	1.386	1.385e-03
3.269	1.385	1.653e-03
3.294	1.383	1.662e-03
3.319	1.380	2.153e-03
3.345	1.371	4.472e-03
3.371	1.370	5.516e-02
3.398	1.409	7.308e-03
3.425	1.396	5.397e-03
3.452	1.399	5.379e-03
3.480	1.396	2.977e-03
3.508	1.394	1.926e-03
3.537	1.393	1.660e-03
3.566	1.392	1.710e-03
3.596	1.392	1.027e-03
3.626	1.391	4.415e-04
3.656	1.390	3.036e-04
3.688	1.389	2.758e-04
3.719	1.388	2.644e-04
3.752	1.388	4.413e-04
3.784	1.387	2.431e-04
3.818	1.387	1.206e-04
3.852	1.386	8.782e-05
3.887	1.386	7.765e-05
3.922	1.385	8.242e-05
3.958	1.384	1.094e-04
3.994	1.384	3.846e-04
4.032	1.384	1.573e-04
4.070	1.383	8.547e-05
4.108	1.383	7.154e-05
4.148	1.382	7.203e-05
4.188	1.382	8.082e-05
4.229	1.381	9.188e-05
4.271	1.380	1.045e-04
4.313	1.380	1.296e-04
4.357	1.379	1.713e-04
4.401	1.379	2.280e-04
4.447	1.378	2.613e-04
4.493	1.377	3.437e-04
4.540	1.376	5.350e-04
4.588	1.375	1.384e-03
4.638	1.376	2.711e-03
4.688	1.376	1.377e-03
4.739	1.375	7.474e-04
4.792	1.374	6.801e-04
4.846	1.373	8.206e-04
4.901	1.372	6.929e-04
4.957	1.371	6.518e-04
5.014	1.370	9.308e-04
5.073	1.369	1.461e-03
5.133	1.369	2.400e-03
5.195	1.369	1.660e-03
5.258	1.367	1.205e-03
5.323	1.366	1.249e-03
5.390	1.365	1.284e-03
5.458	1.363	1.296e-03
5.527	1.362	1.599e-03
5.599	1.360	2.047e-03
5.673	1.359	2.125e-03
5.748	1.358	2.187e-03
5.826	1.356	2.356e-03
5.905	1.354	2.426e-03
5.987	1.352	2.713e-03
6.071	1.350	3.178e-03
6.158	1.348	3.625e-03
6.247	1.346	4.229e-03
6.338	1.344	3.710e-03
6.433	1.340	3.413e-03
6.530	1.336	3.523e-03
6.630	1.332	3.630e-03
6.733	1.326	4.369e-03
6.840	1.319	6.514e-03
6.950	1.316	8.588e-03
7.064	1.308	1.601e-02
7.181	1.315	1.032e-02
7.302	1.300	6.959e-03
7.428	1.285	6.534e-03
7.558	1.264	7.812e-03
7.693	1.232	1.147e-02
7.832	1.140	5.955e-02
8.088	1.313	1.254e-02
8.403	1.194	6.904e-02
8.743	1.063	1.366e-01
9.112	1.140	7.106e-01
9.513	1.614	4.539e-01
9.951	1.843	1.513e-01
10.432	1.550	1.870e-02
10.961	1.415	1.375e-02
11.547	1.334	2.170e-01
12.199	1.284	4.308e-01
12.929	1.782	6.366e-02
13.752	1.609	2.151e-02
14.687	1.582	3.711e-02
15.205	1.574	2.857e-02
15.759	1.531	2.124e-02
16.356	1.509	2.343e-02
16.999	1.492	2.992e-02
17.695	1.488	4.446e-02
18.451	1.485	4.863e-02
19.274	1.477	5.071e-02
20.174	1.472	5.159e-02
21.162	1.459	5.301e-02
22.252	1.439	6.952e-02
23.460	1.428	7.405e-02
24.807	1.446	2.050e-01
26.319	1.604	1.616e-01
28.026	1.594	8.364e-02
29.970	1.562	6.197e-02
32.203	1.543	5.970e-02
34.797	1.546	6.342e-02
37.845	1.549	4.294e-02
41.478	1.541	2.788e-02
45.883	1.532	1.816e-02
51.334	1.520	1.082e-02
58.256	1.510	8.807e-03
67.335	1.505	7.730e-03
79.766	1.503	6.789e-03
97.826	1.506	7.415e-03
