Material: organic / (C2H6OSi)n - polydimethylsiloxane / Zhang-10-1
Optical constants. X. Zhang, J. Qiu, X. Li, J. Zhao, L. Liu. Complex refractive indices measurements of polymers in visible and near-infrared bands, Appl. Opt. 59, 2337-2344 (2020)
Comments: Normal temperature and pressure. Mass (main agent) : Mass (curing agent) = 10:1. Manufacturer: Dow Corning, USA.
Specs: {"n_absolute": true, "wavelength_vacuum": false}
wavelength (um)	n	k
0.40	1.40760	1.33E-06
0.41	1.40643	1.32E-06
0.42	1.40555	1.32E-06
0.43	1.40426	1.33E-06
0.44	1.40348	1.34E-06
0.45	1.40293	1.34E-06
0.46	1.40180	1.35E-06
0.47	1.40135	1.36E-06
0.48	1.40034	1.37E-06
0.49	1.39995	1.39E-06
0.50	1.39951	1.38E-06
0.51	1.39897	1.40E-06
0.52	1.39836	1.39E-06
0.53	1.39765	1.39E-06
0.54	1.39743	1.40E-06
0.55	1.39693	1.42E-06
0.56	1.39652	1.41E-06
0.57	1.39621	1.43E-06
0.58	1.39557	1.44E-06
0.59	1.39459	1.43E-06
0.60	1.39456	1.45E-06
0.61	1.39440	1.44E-06
0.62	1.39391	1.46E-06
0.63	1.39349	1.45E-06
0.64	1.39322	1.46E-06
0.65	1.39292	1.46E-06
0.66	1.39285	1.44E-06
0.67	1.39274	1.45E-06
0.68	1.39222	1.46E-06
0.69	1.39238	1.44E-06
0.70	1.39190	1.47E-06
0.71	1.39145	1.47E-06
0.72	1.39122	1.48E-06
0.73	1.39090	1.49E-06
0.74	1.39056	1.54E-06
0.75	1.39047	1.49E-06
0.76	1.38977	1.51E-06
0.77	1.38945	1.51E-06
0.78	1.38958	1.50E-06
0.79	1.38919	1.47E-06
0.80	1.38891	1.49E-06
0.81	1.38830	1.51E-06
0.82	1.38942	1.42E-06
0.83	1.38978	1.46E-06
0.84	1.38879	1.43E-06
0.85	1.38959	1.57E-06
0.86	1.38962	1.52E-06
0.87	1.38936	1.99E-06
0.88	1.38917	2.30E-06
0.89	1.38917	2.02E-06
0.90	1.38903	2.11E-06
0.91	1.38899	2.18E-06
0.92	1.38875	2.43E-06
0.93	1.38874	2.00E-06
0.94	1.38851	2.01E-06
0.95	1.38838	2.08E-06
0.96	1.38847	2.34E-06
0.97	1.38834	2.38E-06
0.98	1.38813	2.34E-06
0.99	1.38806	2.23E-06
1.00	1.38818	2.52E-06
1.01	1.38828	2.18E-06
1.02	1.38842	2.38E-06
1.03	1.38405	2.62E-06
1.04	1.38243	2.50E-06
1.05	1.38330	2.42E-06
1.06	1.38327	2.46E-06
1.07	1.38321	2.55E-06
1.08	1.38344	2.60E-06
1.09	1.38357	2.85E-06
1.10	1.38303	2.78E-06
1.11	1.38287	2.43E-06
1.12	1.38328	2.64E-06
1.13	1.38250	2.95E-06
1.14	1.38309	3.61E-06
1.15	1.38243	5.32E-06
1.16	1.38262	5.32E-06
1.17	1.38356	5.92E-06
1.18	1.38348	1.24E-05
1.19	1.38360	1.69E-05
1.20	1.38279	5.15E-06
1.21	1.38090	4.10E-06
1.22	1.38191	3.91E-06
1.23	1.38136	3.06E-06
1.24	1.38065	3.00E-06
1.25	1.38022	3.08E-06
1.26	1.38175	3.08E-06
1.27	1.38198	3.24E-06
1.28	1.38168	3.28E-06
1.29	1.38112	3.21E-06
1.30	1.38046	3.29E-06
1.31	1.37947	3.24E-06
1.32	1.38006	3.22E-06
1.33	1.37988	3.35E-06
1.34	1.37995	3.71E-06
1.35	1.38098	4.35E-06
1.36	1.38006	5.93E-06
1.37	1.38259	1.07E-05
1.38	1.38103	1.09E-05
1.39	1.38089	1.29E-05
1.40	1.38092	1.63E-05
1.41	1.38087	1.42E-05
1.42	1.38150	8.78E-06
1.43	1.38072	7.67E-06
1.44	1.38061	6.59E-06
1.45	1.37978	5.50E-06
1.46	1.38052	5.53E-06
1.47	1.38143	5.53E-06
1.48	1.38144	4.41E-06
1.49	1.38031	5.83E-06
1.50	1.37974	6.37E-06
1.51	1.38032	7.65E-06
1.52	1.38047	8.75E-06
1.53	1.37942	8.83E-06
1.54	1.38024	8.90E-06
1.55	1.38037	8.75E-06
1.56	1.38051	8.07E-06
1.57	1.37914	6.52E-06
1.58	1.37967	5.69E-06
1.59	1.37920	5.39E-06
1.60	1.37903	5.41E-06
1.61	1.37923	5.60E-06
1.62	1.37907	6.08E-06
1.63	1.37933	6.84E-06
1.64	1.37971	8.73E-06
1.65	1.37998	1.18E-05
1.66	1.37959	1.18E-05
1.67	1.37883	1.24E-05
1.68	1.38042	2.09E-05
1.69	1.37921	8.52E-05
1.70	1.37947	6.91E-05
1.71	1.37954	3.74E-05
1.72	1.37981	2.51E-05
1.73	1.38008	4.59E-05
1.74	1.38004	8.24E-05
1.75	1.37980	8.68E-05
1.76	1.37978	4.01E-05
1.77	1.37939	2.62E-05
1.78	1.37876	3.20E-05
1.79	1.37859	2.71E-05
1.80	1.37938	1.43E-05
1.81	1.37841	1.04E-05
1.82	1.37905	1.00E-05
1.83	1.37917	1.61E-05
1.84	1.37960	2.27E-05
1.85	1.37912	2.68E-05
1.86	1.37855	1.52E-05
1.87	1.37873	9.24E-06
1.88	1.37947	8.32E-06
1.89	1.37897	8.68E-06
1.90	1.37871	9.44E-06
1.91	1.37860	9.99E-06
1.92	1.37931	1.07E-05
1.93	1.37847	1.12E-05
1.94	1.37899	1.20E-05
1.95	1.37924	1.21E-05
1.96	1.37856	1.39E-05
1.97	1.37929	1.64E-05
1.98	1.37914	1.61E-05
1.99	1.37891	1.61E-05
2.00	1.37879	1.51E-05
