Material: organic / (C2H6OSi)n - polydimethylsiloxane / Zhang-5-1
Optical constants. X. Zhang, J. Qiu, X. Li, J. Zhao, L. Liu. Complex refractive indices measurements of polymers in visible and near-infrared bands, Appl. Opt. 59, 2337-2344 (2020)
Comments: Normal temperature and pressure. Mass (main agent) : Mass (curing agent) = 5:1. Manufacturer: Dow Corning, USA.
Specs: {"n_absolute": true, "wavelength_vacuum": false}
wavelength (um)	n	k
0.40	1.41491	1.40E-06
0.41	1.41403	1.38E-06
0.42	1.41300	1.38E-06
0.43	1.41179	1.40E-06
0.44	1.41113	1.40E-06
0.45	1.41033	1.41E-06
0.46	1.40943	1.42E-06
0.47	1.40866	1.43E-06
0.48	1.40802	1.43E-06
0.49	1.40733	1.46E-06
0.50	1.40675	1.46E-06
0.51	1.40614	1.47E-06
0.52	1.40557	1.48E-06
0.53	1.40513	1.48E-06
0.54	1.40430	1.49E-06
0.55	1.40420	1.51E-06
0.56	1.40375	1.50E-06
0.57	1.40338	1.53E-06
0.58	1.40292	1.55E-06
0.59	1.40259	1.54E-06
0.60	1.40202	1.57E-06
0.61	1.40158	1.57E-06
0.62	1.40139	1.57E-06
0.63	1.40121	1.58E-06
0.64	1.40059	1.58E-06
0.65	1.40047	1.59E-06
0.66	1.40022	1.58E-06
0.67	1.40006	1.59E-06
0.68	1.39984	1.60E-06
0.69	1.39958	1.60E-06
0.70	1.39907	1.61E-06
0.71	1.39905	1.62E-06
0.72	1.39871	1.63E-06
0.73	1.39817	1.64E-06
0.74	1.39814	1.69E-06
0.75	1.39765	1.66E-06
0.76	1.39750	1.65E-06
0.77	1.39727	1.67E-06
0.78	1.39660	1.67E-06
0.79	1.39645	1.67E-06
0.80	1.39601	1.69E-06
0.81	1.39617	1.70E-06
0.82	1.39684	1.72E-06
0.83	1.39701	1.73E-06
0.84	1.39629	1.62E-06
0.85	1.39687	1.76E-06
0.86	1.39671	1.70E-06
0.87	1.39652	2.22E-06
0.88	1.39624	2.34E-06
0.89	1.39629	2.39E-06
0.90	1.39616	2.32E-06
0.91	1.39610	2.31E-06
0.92	1.39583	2.79E-06
0.93	1.39584	2.60E-06
0.94	1.39554	2.58E-06
0.95	1.39546	2.32E-06
0.96	1.39552	2.78E-06
0.97	1.39537	2.63E-06
0.98	1.39513	2.45E-06
0.99	1.39506	2.56E-06
1.00	1.39525	2.88E-06
1.01	1.39523	2.26E-06
1.02	1.39544	2.61E-06
1.03	1.39121	2.54E-06
1.04	1.39127	2.44E-06
1.05	1.39181	2.38E-06
1.06	1.39102	2.47E-06
1.07	1.39193	2.52E-06
1.08	1.39217	2.57E-06
1.09	1.39220	2.76E-06
1.10	1.39140	2.70E-06
1.11	1.39202	2.40E-06
1.12	1.39164	2.66E-06
1.13	1.39084	2.85E-06
1.14	1.39105	3.42E-06
1.15	1.39087	4.81E-06
1.16	1.39135	4.84E-06
1.17	1.39134	5.34E-06
1.18	1.39199	1.10E-05
1.19	1.39145	1.46E-05
1.20	1.39106	4.75E-06
1.21	1.38948	3.87E-06
1.22	1.39053	3.70E-06
1.23	1.38988	3.00E-06
1.24	1.38929	2.89E-06
1.25	1.38975	3.00E-06
1.26	1.38999	3.04E-06
1.27	1.39049	3.16E-06
1.28	1.39009	3.19E-06
1.29	1.38910	3.11E-06
1.30	1.38878	3.14E-06
1.31	1.38850	3.11E-06
1.32	1.38844	3.12E-06
1.33	1.38895	3.25E-06
1.34	1.38870	3.54E-06
1.35	1.38897	4.13E-06
1.36	1.38914	5.43E-06
1.37	1.39000	9.45E-06
1.38	1.38972	9.79E-06
1.39	1.38923	1.14E-05
1.40	1.38938	1.42E-05
1.41	1.38836	1.24E-05
1.42	1.38932	7.87E-06
1.43	1.38933	6.99E-06
1.44	1.38929	6.05E-06
1.45	1.38840	5.11E-06
1.46	1.38840	5.12E-06
1.47	1.38895	5.10E-06
1.48	1.38968	3.03E-06
1.49	1.38914	5.34E-06
1.50	1.38886	5.84E-06
1.51	1.38844	6.90E-06
1.52	1.38850	7.80E-06
1.53	1.38804	7.85E-06
1.54	1.38863	7.98E-06
1.55	1.38922	7.83E-06
1.56	1.38841	7.28E-06
1.57	1.38815	5.95E-06
1.58	1.38787	5.23E-06
1.59	1.38755	5.01E-06
1.60	1.38748	5.04E-06
1.61	1.38731	5.17E-06
1.62	1.38811	5.53E-06
1.63	1.38725	6.14E-06
1.64	1.38609	7.67E-06
1.65	1.38759	9.77E-06
1.66	1.38751	1.02E-05
1.67	1.38797	1.08E-05
1.68	1.38773	1.81E-05
1.69	1.38719	7.25E-05
1.70	1.38694	5.97E-05
1.71	1.38755	3.22E-05
1.72	1.38689	2.16E-05
1.73	1.38756	3.96E-05
1.74	1.38736	7.03E-05
1.75	1.38736	7.41E-05
1.76	1.38611	3.46E-05
1.77	1.38703	2.28E-05
1.78	1.38651	2.78E-05
1.79	1.38645	2.36E-05
1.80	1.38644	1.26E-05
1.81	1.38680	9.26E-06
1.82	1.38704	8.87E-06
1.83	1.38639	1.39E-05
1.84	1.38730	1.97E-05
1.85	1.38712	2.29E-05
1.86	1.38634	1.35E-05
1.87	1.38571	8.20E-06
1.88	1.38651	7.43E-06
1.89	1.38631	7.87E-06
1.90	1.38600	8.45E-06
1.91	1.38610	8.83E-06
1.92	1.38585	9.57E-06
1.93	1.38623	1.01E-05
1.94	1.38625	1.08E-05
1.95	1.38571	1.11E-05
1.96	1.38546	1.25E-05
1.97	1.38623	1.45E-05
1.98	1.38586	1.42E-05
1.99	1.38653	1.40E-05
2.00	1.38648	1.31E-05
