Material: organic / (C2H6OSi)n - polydimethylsiloxane / Zhang-20-1
Optical constants. X. Zhang, J. Qiu, X. Li, J. Zhao, L. Liu. Complex refractive indices measurements of polymers in visible and near-infrared bands, Appl. Opt. 59, 2337-2344 (2020)
Comments: Normal temperature and pressure. Mass (main agent) : Mass (curing agent) = 20:1. Manufacturer: Dow Corning, USA.
Specs: {"n_absolute": true, "wavelength_vacuum": false}
wavelength (um)	n	k
0.40	1.42109	9.29E-07
0.41	1.41984	9.08E-07
0.42	1.41859	9.01E-07
0.43	1.41780	9.07E-07
0.44	1.41642	9.05E-07
0.45	1.41581	8.99E-07
0.46	1.41499	9.02E-07
0.47	1.41395	9.02E-07
0.48	1.41342	9.08E-07
0.49	1.41243	9.17E-07
0.50	1.41189	9.06E-07
0.51	1.41128	9.21E-07
0.52	1.41051	9.12E-07
0.53	1.41000	9.04E-07
0.54	1.40954	9.09E-07
0.55	1.40929	9.16E-07
0.56	1.40851	9.01E-07
0.57	1.40819	9.12E-07
0.58	1.40776	9.14E-07
0.59	1.40739	9.02E-07
0.60	1.40715	9.32E-07
0.61	1.40653	9.04E-07
0.62	1.40620	9.10E-07
0.63	1.40553	8.99E-07
0.64	1.40527	9.04E-07
0.65	1.40507	8.95E-07
0.66	1.40484	8.72E-07
0.67	1.40451	8.66E-07
0.68	1.40453	8.71E-07
0.69	1.40389	8.48E-07
0.70	1.40397	8.66E-07
0.71	1.40335	8.57E-07
0.72	1.40324	8.61E-07
0.73	1.40313	8.66E-07
0.74	1.40307	9.06E-07
0.75	1.40234	8.60E-07
0.76	1.40235	8.40E-07
0.77	1.40206	8.43E-07
0.78	1.40201	8.32E-07
0.79	1.40158	8.13E-07
0.80	1.40124	8.06E-07
0.81	1.40126	8.32E-07
0.82	1.40150	6.80E-07
0.83	1.40150	7.14E-07
0.84	1.40137	7.12E-07
0.85	1.40153	8.60E-07
0.86	1.40137	7.98E-07
0.87	1.40120	1.32E-06
0.88	1.40091	1.42E-06
0.89	1.40086	1.40E-06
0.90	1.40077	1.43E-06
0.91	1.40061	1.53E-06
0.92	1.40047	1.47E-06
0.93	1.40040	1.76E-06
0.94	1.40025	1.52E-06
0.95	1.40015	1.40E-06
0.96	1.40015	1.75E-06
0.97	1.39997	1.79E-06
0.98	1.39977	1.53E-06
0.99	1.39970	1.37E-06
1.00	1.39976	1.80E-06
1.01	1.39982	1.55E-06
1.02	1.39993	1.78E-06
1.03	1.39734	1.69E-06
1.04	1.39708	1.55E-06
1.05	1.39739	1.45E-06
1.06	1.39685	1.51E-06
1.07	1.39677	1.60E-06
1.08	1.39696	1.70E-06
1.09	1.39675	1.98E-06
1.10	1.39673	1.77E-06
1.11	1.39660	1.58E-06
1.12	1.39654	1.72E-06
1.13	1.39622	1.98E-06
1.14	1.39568	2.62E-06
1.15	1.39599	4.44E-06
1.16	1.39631	4.43E-06
1.17	1.39619	5.13E-06
1.18	1.39656	1.22E-05
1.19	1.39597	1.68E-05
1.20	1.39567	4.17E-06
1.21	1.39517	3.01E-06
1.22	1.39569	2.83E-06
1.23	1.39558	1.95E-06
1.24	1.39494	1.89E-06
1.25	1.39481	1.95E-06
1.26	1.39515	1.96E-06
1.27	1.39555	2.30E-06
1.28	1.39490	2.11E-06
1.29	1.39445	2.07E-06
1.30	1.39483	2.11E-06
1.31	1.39424	2.02E-06
1.32	1.39390	2.03E-06
1.33	1.39453	2.16E-06
1.34	1.39340	2.55E-06
1.35	1.39398	3.20E-06
1.36	1.39455	4.93E-06
1.37	1.39453	9.94E-06
1.38	1.39425	1.01E-05
1.39	1.39359	1.22E-05
1.40	1.39387	1.59E-05
1.41	1.39361	1.35E-05
1.42	1.39392	7.84E-06
1.43	1.39373	6.69E-06
1.44	1.39366	5.54E-06
1.45	1.39347	4.38E-06
1.46	1.39318	4.41E-06
1.47	1.39373	4.43E-06
1.48	1.39400	2.54E-06
1.49	1.39380	4.64E-06
1.50	1.39423	5.18E-06
1.51	1.39279	6.58E-06
1.52	1.39283	7.61E-06
1.53	1.39321	7.71E-06
1.54	1.39284	7.77E-06
1.55	1.39328	7.85E-06
1.56	1.39309	6.97E-06
1.57	1.39291	5.25E-06
1.58	1.39231	4.25E-06
1.59	1.39276	3.94E-06
1.60	1.39251	3.99E-06
1.61	1.39299	4.17E-06
1.62	1.39257	4.68E-06
1.63	1.39185	5.52E-06
1.64	1.39271	7.63E-06
1.65	1.39170	1.16E-05
1.66	1.39185	1.09E-05
1.67	1.39190	1.13E-05
1.68	1.39262	2.04E-05
1.69	1.39197	8.84E-05
1.70	1.39116	7.16E-05
1.71	1.39032	3.78E-05
1.72	1.39027	2.48E-05
1.73	1.39079	4.66E-05
1.74	1.39191	8.54E-05
1.75	1.39224	9.00E-05
1.76	1.39094	4.01E-05
1.77	1.39111	2.54E-05
1.78	1.39197	2.54E-05
1.79	1.39189	2.63E-05
1.80	1.39084	1.30E-05
1.81	1.39131	8.95E-06
1.82	1.39026	8.47E-06
1.83	1.39172	1.50E-05
1.84	1.39211	2.21E-05
1.85	1.39078	2.61E-05
1.86	1.39137	1.39E-05
1.87	1.39159	7.61E-06
1.88	1.39150	6.69E-06
1.89	1.39093	7.04E-06
1.90	1.39098	7.68E-06
1.91	1.39019	8.38E-06
1.92	1.39004	9.07E-06
1.93	1.39071	9.60E-06
1.94	1.39044	1.03E-05
1.95	1.39051	1.02E-05
1.96	1.39081	1.22E-05
1.97	1.39043	1.48E-05
1.98	1.39098	1.46E-05
1.99	1.38973	1.45E-05
2.00	1.39092	1.36E-05
