Material: organic / (C2H6OSi)n - polydimethylsiloxane / Zhang-15-1
Optical constants. X. Zhang, J. Qiu, X. Li, J. Zhao, L. Liu. Complex refractive indices measurements of polymers in visible and near-infrared bands, Appl. Opt. 59, 2337-2344 (2020)
Comments: Normal temperature and pressure. Mass (main agent) : Mass (curing agent) = 15:1. Manufacturer: Dow Corning, USA.
Specs: {"n_absolute": true, "wavelength_vacuum": false}
wavelength (um)	n	k
0.40	1.41545	1.90E-06
0.41	1.41455	1.91E-06
0.42	1.41337	1.91E-06
0.43	1.41235	1.94E-06
0.44	1.41142	1.95E-06
0.45	1.41054	1.97E-06
0.46	1.40974	1.99E-06
0.47	1.40929	2.01E-06
0.48	1.40851	2.02E-06
0.49	1.40727	2.05E-06
0.50	1.40720	2.06E-06
0.51	1.40665	2.09E-06
0.52	1.40607	2.10E-06
0.53	1.40562	2.11E-06
0.54	1.40486	2.14E-06
0.55	1.40476	2.15E-06
0.56	1.40422	2.16E-06
0.57	1.40379	2.19E-06
0.58	1.40344	2.21E-06
0.59	1.40287	2.21E-06
0.60	1.40236	2.26E-06
0.61	1.40218	2.27E-06
0.62	1.40185	2.29E-06
0.63	1.40159	2.31E-06
0.64	1.40068	2.31E-06
0.65	1.40081	2.33E-06
0.66	1.40072	2.34E-06
0.67	1.40054	2.35E-06
0.68	1.40033	2.38E-06
0.69	1.40007	2.39E-06
0.70	1.39975	2.41E-06
0.71	1.39953	2.43E-06
0.72	1.39919	2.45E-06
0.73	1.39896	2.46E-06
0.74	1.39878	2.50E-06
0.75	1.39854	2.49E-06
0.76	1.39796	2.51E-06
0.77	1.39760	2.52E-06
0.78	1.39725	2.54E-06
0.79	1.39729	2.53E-06
0.80	1.39719	2.58E-06
0.81	1.39669	2.59E-06
0.82	1.39751	2.66E-06
0.83	1.39763	2.56E-06
0.84	1.39732	2.53E-06
0.85	1.39759	2.68E-06
0.86	1.39741	2.63E-06
0.87	1.39717	3.08E-06
0.88	1.39722	3.43E-06
0.89	1.39714	3.39E-06
0.90	1.39700	3.40E-06
0.91	1.39694	3.30E-06
0.92	1.39683	3.44E-06
0.93	1.39665	3.44E-06
0.94	1.39651	3.67E-06
0.95	1.39643	3.65E-06
0.96	1.39640	3.54E-06
0.97	1.39631	3.35E-06
0.98	1.39614	3.66E-06
0.99	1.39617	3.46E-06
1.00	1.39609	3.80E-06
1.01	1.39620	1.11E-06
1.02	1.39641	1.54E-06
1.03	1.39237	1.44E-06
1.04	1.39154	1.32E-06
1.05	1.39211	1.17E-06
1.06	1.39189	1.24E-06
1.07	1.39193	1.33E-06
1.08	1.39124	1.35E-06
1.09	1.39119	1.67E-06
1.10	1.39051	1.47E-06
1.11	1.39152	1.01E-06
1.12	1.39140	1.37E-06
1.13	1.39097	1.56E-06
1.14	1.39058	2.04E-06
1.15	1.38979	3.34E-06
1.16	1.39043	3.26E-06
1.17	1.39093	3.76E-06
1.18	1.39103	9.11E-06
1.19	1.39087	1.21E-05
1.20	1.38967	3.24E-06
1.21	1.39030	2.36E-06
1.22	1.38935	2.20E-06
1.23	1.38879	1.59E-06
1.24	1.38942	1.52E-06
1.25	1.38986	1.55E-06
1.26	1.38951	1.55E-06
1.27	1.39004	1.54E-06
1.28	1.38918	1.62E-06
1.29	1.38891	1.67E-06
1.30	1.38845	1.66E-06
1.31	1.38764	1.60E-06
1.32	1.38842	1.56E-06
1.33	1.38782	1.64E-06
1.34	1.38842	1.93E-06
1.35	1.38833	2.36E-06
1.36	1.38844	3.60E-06
1.37	1.38960	7.34E-06
1.38	1.38773	7.48E-06
1.39	1.38790	8.80E-06
1.40	1.38957	1.15E-05
1.41	1.38878	9.77E-06
1.42	1.38821	5.68E-06
1.43	1.38923	4.82E-06
1.44	1.38813	3.97E-06
1.45	1.38800	3.19E-06
1.46	1.38731	3.19E-06
1.47	1.38766	3.05E-06
1.48	1.38881	2.67E-06
1.49	1.38773	3.19E-06
1.50	1.38779	3.68E-06
1.51	1.38742	4.67E-06
1.52	1.38684	5.57E-06
1.53	1.38748	5.54E-06
1.54	1.38770	5.51E-06
1.55	1.38769	5.44E-06
1.56	1.38695	4.91E-06
1.57	1.38685	3.76E-06
1.58	1.38756	3.00E-06
1.59	1.38718	2.78E-06
1.60	1.38686	2.80E-06
1.61	1.38638	2.85E-06
1.62	1.38630	3.19E-06
1.63	1.38739	3.89E-06
1.64	1.38772	5.39E-06
1.65	1.38643	8.01E-06
1.66	1.38465	7.66E-06
1.67	1.38624	7.98E-06
1.68	1.38622	1.44E-05
1.69	1.38671	7.33E-05
1.70	1.38661	5.19E-05
1.71	1.38597	2.81E-05
1.72	1.38620	1.74E-05
1.73	1.38610	3.31E-05
1.74	1.38557	6.10E-05
1.75	1.38605	7.46E-05
1.76	1.38616	2.94E-05
1.77	1.38638	1.80E-05
1.78	1.38674	2.23E-05
1.79	1.38592	1.92E-05
1.80	1.38687	9.21E-06
1.81	1.38675	6.17E-06
1.82	1.38500	5.85E-06
1.83	1.38605	1.05E-05
1.84	1.38582	1.57E-05
1.85	1.38590	1.85E-05
1.86	1.38571	9.97E-06
1.87	1.38742	5.12E-06
1.88	1.38572	4.40E-06
1.89	1.38550	4.62E-06
1.90	1.38575	5.22E-06
1.91	1.38590	5.71E-06
1.92	1.38648	6.15E-06
1.93	1.38618	6.52E-06
1.94	1.38528	6.94E-06
1.95	1.38562	6.86E-06
1.96	1.38580	8.34E-06
1.97	1.38505	1.02E-05
1.98	1.38434	9.92E-06
1.99	1.38562	9.83E-06
2.00	1.38550	9.13E-06
