Material: main / Au / Rakic
Optical constants. A. D. Rakić, A. B. Djurišic, J. M. Elazar, and M. L. Majewski. Optical properties of metallic films for vertical-cavity optoelectronic devices, Appl. Opt. 37, 5271-5283 (1998)[Calculation script (Python)]
Comments: Fit of the experimental data from several sources to Brendel-Bormann (BB) model.
wavelength (um)	n	k
2.0664e-01	1.2526e+00	1.9858e+00
2.0767e-01	1.2618e+00	1.9832e+00
2.0870e-01	1.2707e+00	1.9806e+00
2.0975e-01	1.2794e+00	1.9781e+00
2.1081e-01	1.2879e+00	1.9756e+00
2.1188e-01	1.2962e+00	1.9731e+00
2.1295e-01	1.3042e+00	1.9707e+00
2.1404e-01	1.3120e+00	1.9684e+00
2.1515e-01	1.3196e+00	1.9662e+00
2.1626e-01	1.3271e+00	1.9642e+00
2.1738e-01	1.3343e+00	1.9622e+00
2.1852e-01	1.3414e+00	1.9604e+00
2.1967e-01	1.3484e+00	1.9587e+00
2.2083e-01	1.3552e+00	1.9571e+00
2.2200e-01	1.3618e+00	1.9557e+00
2.2318e-01	1.3684e+00	1.9545e+00
2.2438e-01	1.3749e+00	1.9534e+00
2.2559e-01	1.3814e+00	1.9525e+00
2.2681e-01	1.3877e+00	1.9518e+00
2.2805e-01	1.3941e+00	1.9512e+00
2.2930e-01	1.4004e+00	1.9508e+00
2.3057e-01	1.4067e+00	1.9506e+00
2.3184e-01	1.4131e+00	1.9505e+00
2.3314e-01	1.4195e+00	1.9506e+00
2.3444e-01	1.4259e+00	1.9508e+00
2.3577e-01	1.4324e+00	1.9512e+00
2.3710e-01	1.4390e+00	1.9516e+00
2.3845e-01	1.4457e+00	1.9522e+00
2.3982e-01	1.4525e+00	1.9529e+00
2.4120e-01	1.4595e+00	1.9536e+00
2.4260e-01	1.4665e+00	1.9544e+00
2.4402e-01	1.4738e+00	1.9552e+00
2.4545e-01	1.4811e+00	1.9561e+00
2.4690e-01	1.4887e+00	1.9569e+00
2.4837e-01	1.4964e+00	1.9577e+00
2.4985e-01	1.5042e+00	1.9585e+00
2.5135e-01	1.5123e+00	1.9591e+00
2.5287e-01	1.5205e+00	1.9597e+00
2.5441e-01	1.5288e+00	1.9602e+00
2.5597e-01	1.5373e+00	1.9605e+00
2.5755e-01	1.5460e+00	1.9607e+00
2.5914e-01	1.5548e+00	1.9606e+00
2.6076e-01	1.5637e+00	1.9603e+00
2.6239e-01	1.5727e+00	1.9598e+00
2.6405e-01	1.5818e+00	1.9590e+00
2.6573e-01	1.5909e+00	1.9579e+00
2.6743e-01	1.6001e+00	1.9565e+00
2.6915e-01	1.6093e+00	1.9548e+00
2.7089e-01	1.6185e+00	1.9527e+00
2.7266e-01	1.6277e+00	1.9503e+00
2.7445e-01	1.6367e+00	1.9475e+00
2.7626e-01	1.6457e+00	1.9442e+00
2.7810e-01	1.6546e+00	1.9406e+00
2.7996e-01	1.6632e+00	1.9366e+00
2.8185e-01	1.6716e+00	1.9322e+00
2.8376e-01	1.6798e+00	1.9273e+00
2.8570e-01	1.6877e+00	1.9220e+00
2.8766e-01	1.6952e+00	1.9163e+00
2.8966e-01	1.7023e+00	1.9102e+00
2.9168e-01	1.7090e+00	1.9037e+00
2.9372e-01	1.7152e+00	1.8968e+00
2.9580e-01	1.7209e+00	1.8895e+00
2.9791e-01	1.7259e+00	1.8819e+00
3.0005e-01	1.7303e+00	1.8740e+00
3.0222e-01	1.7341e+00	1.8658e+00
3.0442e-01	1.7371e+00	1.8573e+00
3.0665e-01	1.7392e+00	1.8487e+00
3.0891e-01	1.7406e+00	1.8399e+00
3.1121e-01	1.7411e+00	1.8310e+00
3.1354e-01	1.7406e+00	1.8221e+00
3.1591e-01	1.7392e+00	1.8133e+00
3.1832e-01	1.7368e+00	1.8046e+00
3.2076e-01	1.7334e+00	1.7962e+00
3.2324e-01	1.7290e+00	1.7881e+00
3.2576e-01	1.7236e+00	1.7804e+00
3.2831e-01	1.7171e+00	1.7732e+00
3.3091e-01	1.7097e+00	1.7668e+00
3.3355e-01	1.7013e+00	1.7611e+00
3.3623e-01	1.6921e+00	1.7563e+00
3.3896e-01	1.6822e+00	1.7524e+00
3.4173e-01	1.6715e+00	1.7497e+00
3.4454e-01	1.6603e+00	1.7481e+00
3.4741e-01	1.6487e+00	1.7478e+00
3.5032e-01	1.6369e+00	1.7487e+00
3.5328e-01	1.6251e+00	1.7509e+00
3.5629e-01	1.6134e+00	1.7544e+00
3.5935e-01	1.6020e+00	1.7591e+00
3.6246e-01	1.5911e+00	1.7648e+00
3.6563e-01	1.5809e+00	1.7715e+00
3.6886e-01	1.5715e+00	1.7790e+00
3.7214e-01	1.5631e+00	1.7871e+00
3.7548e-01	1.5556e+00	1.7954e+00
3.7888e-01	1.5492e+00	1.8039e+00
3.8235e-01	1.5438e+00	1.8121e+00
3.8588e-01	1.5393e+00	1.8197e+00
3.8947e-01	1.5356e+00	1.8266e+00
3.9313e-01	1.5325e+00	1.8325e+00
3.9686e-01	1.5298e+00	1.8371e+00
4.0066e-01	1.5271e+00	1.8402e+00
4.0454e-01	1.5242e+00	1.8417e+00
4.0849e-01	1.5206e+00	1.8414e+00
4.1252e-01	1.5159e+00	1.8394e+00
4.1663e-01	1.5098e+00	1.8356e+00
4.2082e-01	1.5018e+00	1.8301e+00
4.2510e-01	1.4913e+00	1.8230e+00
4.2947e-01	1.4781e+00	1.8146e+00
4.3392e-01	1.4616e+00	1.8051e+00
4.3847e-01	1.4414e+00	1.7950e+00
4.4312e-01	1.4171e+00	1.7846e+00
4.4786e-01	1.3883e+00	1.7745e+00
4.5271e-01	1.3548e+00	1.7653e+00
4.5767e-01	1.3163e+00	1.7577e+00
4.6273e-01	1.2727e+00	1.7526e+00
4.6791e-01	1.2240e+00	1.7506e+00
4.7320e-01	1.1703e+00	1.7529e+00
4.7862e-01	1.1120e+00	1.7603e+00
4.8416e-01	1.0495e+00	1.7739e+00
4.8983e-01	9.8381e-01	1.7945e+00
4.9564e-01	9.1583e-01	1.8228e+00
5.0158e-01	8.4686e-01	1.8592e+00
5.0767e-01	7.7823e-01	1.9041e+00
5.1391e-01	7.1128e-01	1.9570e+00
5.2030e-01	6.4722e-01	2.0175e+00
5.2686e-01	5.8700e-01	2.0847e+00
5.3358e-01	5.3130e-01	2.1578e+00
5.4048e-01	4.8048e-01	2.2357e+00
5.4756e-01	4.3467e-01	2.3174e+00
5.5482e-01	3.9379e-01	2.4023e+00
5.6228e-01	3.5763e-01	2.4895e+00
5.6994e-01	3.2590e-01	2.5785e+00
5.7782e-01	2.9823e-01	2.6689e+00
5.8591e-01	2.7427e-01	2.7604e+00
5.9424e-01	2.5367e-01	2.8527e+00
6.0281e-01	2.3607e-01	2.9458e+00
6.1162e-01	2.2116e-01	3.0395e+00
6.2070e-01	2.0864e-01	3.1338e+00
6.3005e-01	1.9826e-01	3.2288e+00
6.3969e-01	1.8978e-01	3.3244e+00
6.4963e-01	1.8299e-01	3.4209e+00
6.5988e-01	1.7771e-01	3.5183e+00
6.7046e-01	1.7379e-01	3.6167e+00
6.8138e-01	1.7109e-01	3.7163e+00
6.9267e-01	1.6950e-01	3.8173e+00
7.0433e-01	1.6893e-01	3.9197e+00
7.1640e-01	1.6928e-01	4.0238e+00
7.2889e-01	1.7051e-01	4.1297e+00
7.4182e-01	1.7254e-01	4.2376e+00
7.5521e-01	1.7535e-01	4.3477e+00
7.6910e-01	1.7888e-01	4.4603e+00
7.8351e-01	1.8312e-01	4.5754e+00
7.9847e-01	1.8805e-01	4.6935e+00
8.1402e-01	1.9364e-01	4.8145e+00
8.3018e-01	1.9990e-01	4.9389e+00
8.4699e-01	2.0681e-01	5.0669e+00
8.6450e-01	2.1438e-01	5.1987e+00
8.8275e-01	2.2261e-01	5.3347e+00
9.0179e-01	2.3151e-01	5.4751e+00
9.2166e-01	2.4109e-01	5.6203e+00
9.4243e-01	2.5136e-01	5.7707e+00
9.6416e-01	2.6233e-01	5.9266e+00
9.8691e-01	2.7404e-01	6.0886e+00
1.0108e+00	2.8650e-01	6.2570e+00
1.0358e+00	2.9975e-01	6.4323e+00
1.0621e+00	3.1381e-01	6.6153e+00
1.0898e+00	3.2874e-01	6.8064e+00
1.1190e+00	3.4456e-01	7.0064e+00
1.1497e+00	3.6135e-01	7.2160e+00
1.1822e+00	3.7916e-01	7.4362e+00
1.2166e+00	3.9806e-01	7.6678e+00
1.2531e+00	4.1814e-01	7.9119e+00
1.2918e+00	4.3951e-01	8.1697e+00
1.3329e+00	4.6228e-01	8.4427e+00
1.3768e+00	4.8658e-01	8.7322e+00
1.4237e+00	5.1260e-01	9.0401e+00
1.4739e+00	5.4054e-01	9.3684e+00
1.5277e+00	5.7062e-01	9.7192e+00
1.5857e+00	6.0315e-01	1.0095e+01
1.6482e+00	6.3849e-01	1.0500e+01
1.7158e+00	6.7705e-01	1.0936e+01
1.7892e+00	7.1939e-01	1.1408e+01
1.8692e+00	7.6615e-01	1.1921e+01
1.9566e+00	8.1815e-01	1.2481e+01
2.0527e+00	8.7645e-01	1.3094e+01
2.1586e+00	9.4233e-01	1.3769e+01
2.2761e+00	1.0175e+00	1.4515e+01
2.4071e+00	1.1042e+00	1.5346e+01
2.5541e+00	1.2052e+00	1.6277e+01
2.7203e+00	1.3243e+00	1.7326e+01
2.9095e+00	1.4670e+00	1.8518e+01
3.1271e+00	1.6402e+00	1.9885e+01
3.3798e+00	1.8543e+00	2.1468e+01
3.6770e+00	2.1239e+00	2.3324e+01
4.0315e+00	2.4712e+00	2.5527e+01
4.4616e+00	2.9302e+00	2.8185e+01
4.9945e+00	3.5552e+00	3.1453e+01
5.6719e+00	4.4383e+00	3.5565e+01
6.5619e+00	5.7435e+00	4.0884e+01
7.7832e+00	7.7856e+00	4.8016e+01
9.5631e+00	1.1227e+01	5.8021e+01
1.2398e+01	1.7635e+01	7.2909e+01
