Material: main / GaSb / Djurisic
Optical constants. A. B. Djurišić, E. H. Li, D. Rakić, M. L. Majewski. Modeling the optical properties of AlSb, GaSb, and InSb, Appl. Phys. A 70, 29-32 (2000)[Calculation script (Python)]
wavelength (um)	n	k
2.0664e-01	1.0635e+00	2.3489e+00
2.0760e-01	1.0695e+00	2.3585e+00
2.0856e-01	1.0756e+00	2.3682e+00
2.0954e-01	1.0817e+00	2.3780e+00
2.1052e-01	1.0879e+00	2.3880e+00
2.1151e-01	1.0941e+00	2.3981e+00
2.1251e-01	1.1004e+00	2.4083e+00
2.1353e-01	1.1067e+00	2.4187e+00
2.1455e-01	1.1131e+00	2.4293e+00
2.1558e-01	1.1196e+00	2.4400e+00
2.1662e-01	1.1261e+00	2.4509e+00
2.1767e-01	1.1327e+00	2.4620e+00
2.1873e-01	1.1393e+00	2.4733e+00
2.1980e-01	1.1460e+00	2.4848e+00
2.2088e-01	1.1528e+00	2.4964e+00
2.2198e-01	1.1597e+00	2.5083e+00
2.2308e-01	1.1666e+00	2.5204e+00
2.2420e-01	1.1735e+00	2.5328e+00
2.2532e-01	1.1806e+00	2.5453e+00
2.2646e-01	1.1877e+00	2.5582e+00
2.2761e-01	1.1949e+00	2.5713e+00
2.2877e-01	1.2022e+00	2.5847e+00
2.2994e-01	1.2095e+00	2.5983e+00
2.3113e-01	1.2170e+00	2.6123e+00
2.3232e-01	1.2245e+00	2.6266e+00
2.3353e-01	1.2321e+00	2.6413e+00
2.3476e-01	1.2398e+00	2.6563e+00
2.3599e-01	1.2477e+00	2.6717e+00
2.3724e-01	1.2556e+00	2.6875e+00
2.3850e-01	1.2636e+00	2.7037e+00
2.3978e-01	1.2718e+00	2.7204e+00
2.4106e-01	1.2801e+00	2.7375e+00
2.4237e-01	1.2885e+00	2.7552e+00
2.4368e-01	1.2971e+00	2.7734e+00
2.4501e-01	1.3059e+00	2.7922e+00
2.4636e-01	1.3148e+00	2.8117e+00
2.4772e-01	1.3240e+00	2.8317e+00
2.4909e-01	1.3333e+00	2.8525e+00
2.5049e-01	1.3430e+00	2.8741e+00
2.5189e-01	1.3529e+00	2.8965e+00
2.5331e-01	1.3632e+00	2.9197e+00
2.5475e-01	1.3738e+00	2.9439e+00
2.5621e-01	1.3848e+00	2.9691e+00
2.5768e-01	1.3964e+00	2.9955e+00
2.5917e-01	1.4084e+00	3.0230e+00
2.6067e-01	1.4212e+00	3.0518e+00
2.6220e-01	1.4346e+00	3.0820e+00
2.6374e-01	1.4490e+00	3.1137e+00
2.6530e-01	1.4643e+00	3.1471e+00
2.6688e-01	1.4808e+00	3.1822e+00
2.6848e-01	1.4988e+00	3.2192e+00
2.7009e-01	1.5183e+00	3.2583e+00
2.7173e-01	1.5399e+00	3.2997e+00
2.7338e-01	1.5637e+00	3.3434e+00
2.7506e-01	1.5903e+00	3.3897e+00
2.7676e-01	1.6202e+00	3.4386e+00
2.7847e-01	1.6541e+00	3.4903e+00
2.8021e-01	1.6926e+00	3.5448e+00
2.8198e-01	1.7368e+00	3.6021e+00
2.8376e-01	1.7878e+00	3.6620e+00
2.8557e-01	1.8468e+00	3.7240e+00
2.8739e-01	1.9154e+00	3.7874e+00
2.8925e-01	1.9952e+00	3.8509e+00
2.9113e-01	2.0879e+00	3.9128e+00
2.9303e-01	2.1952e+00	3.9701e+00
2.9495e-01	2.3180e+00	4.0192e+00
2.9691e-01	2.4565e+00	4.0552e+00
2.9888e-01	2.6088e+00	4.0723e+00
3.0089e-01	2.7704e+00	4.0648e+00
3.0292e-01	2.9342e+00	4.0283e+00
3.0498e-01	3.0902e+00	3.9616e+00
3.0707e-01	3.2283e+00	3.8680e+00
3.0918e-01	3.3404e+00	3.7555e+00
3.1133e-01	3.4231e+00	3.6346e+00
3.1351e-01	3.4776e+00	3.5161e+00
3.1571e-01	3.5094e+00	3.4078e+00
3.1795e-01	3.5258e+00	3.3142e+00
3.2022e-01	3.5337e+00	3.2364e+00
3.2252e-01	3.5391e+00	3.1730e+00
3.2486e-01	3.5462e+00	3.1211e+00
3.2723e-01	3.5572e+00	3.0774e+00
3.2963e-01	3.5734e+00	3.0386e+00
3.3207e-01	3.5945e+00	3.0020e+00
3.3455e-01	3.6199e+00	2.9652e+00
3.3706e-01	3.6484e+00	2.9266e+00
3.3961e-01	3.6786e+00	2.8850e+00
3.4220e-01	3.7088e+00	2.8399e+00
3.4483e-01	3.7375e+00	2.7911e+00
3.4750e-01	3.7634e+00	2.7391e+00
3.5022e-01	3.7851e+00	2.6846e+00
3.5297e-01	3.8017e+00	2.6286e+00
3.5577e-01	3.8129e+00	2.5726e+00
3.5862e-01	3.8183e+00	2.5179e+00
3.6151e-01	3.8184e+00	2.4657e+00
3.6444e-01	3.8138e+00	2.4173e+00
3.6743e-01	3.8055e+00	2.3736e+00
3.7046e-01	3.7944e+00	2.3350e+00
3.7355e-01	3.7819e+00	2.3018e+00
3.7668e-01	3.7688e+00	2.2741e+00
3.7987e-01	3.7562e+00	2.2514e+00
3.8312e-01	3.7449e+00	2.2333e+00
3.8642e-01	3.7354e+00	2.2194e+00
3.8978e-01	3.7282e+00	2.2089e+00
3.9319e-01	3.7236e+00	2.2014e+00
3.9667e-01	3.7218e+00	2.1962e+00
4.0021e-01	3.7228e+00	2.1928e+00
4.0381e-01	3.7266e+00	2.1907e+00
4.0748e-01	3.7332e+00	2.1895e+00
4.1121e-01	3.7424e+00	2.1889e+00
4.1502e-01	3.7542e+00	2.1884e+00
4.1889e-01	3.7685e+00	2.1879e+00
4.2284e-01	3.7850e+00	2.1871e+00
4.2687e-01	3.8036e+00	2.1857e+00
4.3097e-01	3.8243e+00	2.1835e+00
4.3515e-01	3.8468e+00	2.1805e+00
4.3941e-01	3.8710e+00	2.1763e+00
4.4376e-01	3.8968e+00	2.1710e+00
4.4819e-01	3.9240e+00	2.1642e+00
4.5271e-01	3.9524e+00	2.1560e+00
4.5733e-01	3.9821e+00	2.1461e+00
4.6204e-01	4.0126e+00	2.1345e+00
4.6685e-01	4.0440e+00	2.1211e+00
4.7176e-01	4.0759e+00	2.1056e+00
4.7677e-01	4.1082e+00	2.0881e+00
4.8189e-01	4.1406e+00	2.0685e+00
4.8712e-01	4.1728e+00	2.0466e+00
4.9247e-01	4.2045e+00	2.0226e+00
4.9794e-01	4.2353e+00	1.9963e+00
5.0353e-01	4.2649e+00	1.9680e+00
5.0924e-01	4.2926e+00	1.9378e+00
5.1509e-01	4.3179e+00	1.9060e+00
5.2107e-01	4.3404e+00	1.8733e+00
5.2720e-01	4.3594e+00	1.8405e+00
5.3347e-01	4.3745e+00	1.8087e+00
5.3989e-01	4.3852e+00	1.7798e+00
5.4646e-01	4.3917e+00	1.7560e+00
5.5320e-01	4.3951e+00	1.7409e+00
5.6011e-01	4.3983e+00	1.7387e+00
5.6719e-01	4.4077e+00	1.7543e+00
5.7446e-01	4.4358e+00	1.7908e+00
5.8191e-01	4.5030e+00	1.8427e+00
5.8955e-01	4.6302e+00	1.8839e+00
5.9741e-01	4.8133e+00	1.8643e+00
6.0547e-01	4.9978e+00	1.7466e+00
6.1375e-01	5.1161e+00	1.5560e+00
6.2227e-01	5.1517e+00	1.3539e+00
6.3102e-01	5.1307e+00	1.1791e+00
6.4002e-01	5.0822e+00	1.0394e+00
6.4929e-01	5.0239e+00	9.2933e-01
6.5882e-01	4.9643e+00	8.4128e-01
6.6864e-01	4.9067e+00	7.6920e-01
6.7876e-01	4.8522e+00	7.0878e-01
6.8919e-01	4.8011e+00	6.5706e-01
6.9994e-01	4.7532e+00	6.1202e-01
7.1103e-01	4.7083e+00	5.7225e-01
7.2248e-01	4.6661e+00	5.3674e-01
7.3431e-01	4.6263e+00	5.0474e-01
7.4653e-01	4.5886e+00	4.7569e-01
7.5916e-01	4.5529e+00	4.4917e-01
7.7223e-01	4.5191e+00	4.2482e-01
7.8576e-01	4.4869e+00	4.0238e-01
7.9977e-01	4.4563e+00	3.8163e-01
8.1429e-01	4.4270e+00	3.6237e-01
8.2934e-01	4.3992e+00	3.4446e-01
8.4496e-01	4.3726e+00	3.2784e-01
8.6118e-01	4.3467e+00	3.1230e-01
8.7804e-01	4.3222e+00	2.9748e-01
8.9557e-01	4.2987e+00	2.8353e-01
9.1381e-01	4.2762e+00	2.7037e-01
9.3281e-01	4.2546e+00	2.5793e-01
9.5262e-01	4.2340e+00	2.4615e-01
9.7329e-01	4.2142e+00	2.3498e-01
9.9487e-01	4.1952e+00	2.2437e-01
1.0174e+00	4.1770e+00	2.1428e-01
1.0410e+00	4.1596e+00	2.0466e-01
1.0658e+00	4.1429e+00	1.9549e-01
1.0917e+00	4.1268e+00	1.8673e-01
1.1190e+00	4.1115e+00	1.7835e-01
1.1476e+00	4.0967e+00	1.7033e-01
1.1777e+00	4.0826e+00	1.6265e-01
1.2095e+00	4.0691e+00	1.5528e-01
1.2430e+00	4.0562e+00	1.4822e-01
1.2784e+00	4.0439e+00	1.4144e-01
1.3159e+00	4.0321e+00	1.3495e-01
1.3557e+00	4.0208e+00	1.2872e-01
1.3979e+00	4.0102e+00	1.2277e-01
1.4429e+00	4.0000e+00	1.1709e-01
1.4908e+00	3.9904e+00	1.1171e-01
1.5421e+00	3.9813e+00	1.0666e-01
1.5969e+00	3.9727e+00	1.0202e-01
1.6559e+00	3.9647e+00	9.7992e-02
1.7194e+00	3.9573e+00	9.7450e-02
1.7879e+00	3.9462e+00	9.1936e-02
1.8621e+00	3.9375e+00	8.7279e-02
1.9427e+00	3.9295e+00	8.2740e-02
2.0307e+00	3.9220e+00	7.8315e-02
2.1270e+00	3.9150e+00	7.4000e-02
2.2328e+00	3.9084e+00	6.9789e-02
2.3498e+00	3.9022e+00	6.5676e-02
2.4797e+00	3.8964e+00	6.1657e-02
