Material: main / SiO2 / Popova
Optical constants. 1) S. Popova, T. Tolstykh, V. Vorobev. Optical characteristics of amorphous quartz in the 1400–200 cm-1 region, Opt. Spectrosc. 33, 444–445 (1972), as cited in Ref. 22) R. Kitamura, L. Pilon, M. Jonasz. Optical constants of silica glass from extreme ultraviolet to far infrared at near room temperature, Appl. Opt. 33, 8118-8133 (2007)* Ref. 2 provides a model for calculating optical constants; model parameters are derived by fitting experimental data from Ref. 1.[Calculation script (Python)]
Comments: Room temperature.
wavelength (um)	n	k
7.0000e+00	1.3030e+00	2.1148e-08
7.0304e+00	1.3000e+00	4.7488e-08
7.0610e+00	1.2968e+00	1.0443e-07
7.0919e+00	1.2936e+00	2.2492e-07
7.1231e+00	1.2902e+00	4.7444e-07
7.1546e+00	1.2867e+00	9.8015e-07
7.1863e+00	1.2830e+00	1.9832e-06
7.2184e+00	1.2792e+00	3.9300e-06
7.2507e+00	1.2752e+00	7.6278e-06
7.2833e+00	1.2710e+00	1.4500e-05
7.3162e+00	1.2665e+00	2.6999e-05
7.3494e+00	1.2619e+00	4.9238e-05
7.3829e+00	1.2569e+00	8.7955e-05
7.4167e+00	1.2517e+00	1.5390e-04
7.4508e+00	1.2462e+00	2.6377e-04
7.4852e+00	1.2403e+00	4.4285e-04
7.5200e+00	1.2340e+00	7.2837e-04
7.5550e+00	1.2272e+00	1.1736e-03
7.5905e+00	1.2199e+00	1.8526e-03
7.6262e+00	1.2121e+00	2.8653e-03
7.6623e+00	1.2037e+00	4.3420e-03
7.6987e+00	1.1947e+00	6.4471e-03
7.7355e+00	1.1849e+00	9.3803e-03
7.7726e+00	1.1746e+00	1.3373e-02
7.8100e+00	1.1636e+00	1.8683e-02
7.8479e+00	1.1521e+00	2.5573e-02
7.8861e+00	1.1402e+00	3.4294e-02
7.9247e+00	1.1281e+00	4.5048e-02
7.9636e+00	1.1161e+00	5.7951e-02
8.0030e+00	1.1045e+00	7.2987e-02
8.0427e+00	1.0935e+00	8.9971e-02
8.0829e+00	1.0836e+00	1.0852e-01
8.1234e+00	1.0749e+00	1.2805e-01
8.1643e+00	1.0674e+00	1.4780e-01
8.2057e+00	1.0610e+00	1.6691e-01
8.2475e+00	1.0552e+00	1.8446e-01
8.2897e+00	1.0495e+00	1.9964e-01
8.3323e+00	1.0430e+00	2.1175e-01
8.3754e+00	1.0346e+00	2.2035e-01
8.4190e+00	1.0233e+00	2.2522e-01
8.4629e+00	1.0077e+00	2.2646e-01
8.5074e+00	9.8632e-01	2.2448e-01
8.5523e+00	9.5718e-01	2.2008e-01
8.5977e+00	9.1791e-01	2.1463e-01
8.6436e+00	8.6502e-01	2.1054e-01
8.6900e+00	7.9330e-01	2.1249e-01
8.7368e+00	6.9474e-01	2.3104e-01
8.7842e+00	5.6118e-01	2.9457e-01
8.8321e+00	4.2533e-01	4.6419e-01
8.8805e+00	3.9385e-01	7.2863e-01
8.9295e+00	4.8283e-01	1.0156e+00
8.9790e+00	6.7789e-01	1.3092e+00
9.0290e+00	9.6496e-01	1.5936e+00
9.0797e+00	1.3066e+00	1.8348e+00
9.1308e+00	1.6442e+00	1.9932e+00
9.1826e+00	1.9210e+00	2.0470e+00
9.2350e+00	2.1082e+00	2.0105e+00
9.2879e+00	2.2164e+00	1.9269e+00
9.3415e+00	2.2829e+00	1.8392e+00
9.3957e+00	2.3408e+00	1.7613e+00
9.4505e+00	2.3996e+00	1.6779e+00
9.5059e+00	2.4490e+00	1.5681e+00
9.5621e+00	2.4757e+00	1.4221e+00
9.6188e+00	2.4735e+00	1.2438e+00
9.6763e+00	2.4437e+00	1.0448e+00
9.7345e+00	2.3921e+00	8.4041e-01
9.7933e+00	2.3265e+00	6.4533e-01
9.8529e+00	2.2536e+00	4.7186e-01
9.9132e+00	2.1787e+00	3.2785e-01
9.9742e+00	2.1057e+00	2.1610e-01
1.0036e+01	2.0371e+00	1.3496e-01
1.0099e+01	1.9747e+00	7.9783e-02
1.0162e+01	1.9192e+00	4.4614e-02
1.0226e+01	1.8709e+00	2.3597e-02
1.0291e+01	1.8293e+00	1.1815e-02
1.0357e+01	1.7934e+00	5.6202e-03
1.0424e+01	1.7623e+00	2.5760e-03
1.0491e+01	1.7350e+00	1.2035e-03
1.0559e+01	1.7105e+00	6.8717e-04
1.0629e+01	1.6882e+00	6.2832e-04
1.0699e+01	1.6676e+00	8.7499e-04
1.0770e+01	1.6482e+00	1.4228e-03
1.0842e+01	1.6297e+00	2.3673e-03
1.0915e+01	1.6116e+00	3.8887e-03
1.0989e+01	1.5939e+00	6.2547e-03
1.1064e+01	1.5762e+00	9.8301e-03
1.1140e+01	1.5585e+00	1.5085e-02
1.1218e+01	1.5407e+00	2.2597e-02
1.1296e+01	1.5229e+00	3.3030e-02
1.1375e+01	1.5054e+00	4.7096e-02
1.1456e+01	1.4886e+00	6.5481e-02
1.1537e+01	1.4733e+00	8.8724e-02
1.1620e+01	1.4602e+00	1.1707e-01
1.1704e+01	1.4506e+00	1.5032e-01
1.1789e+01	1.4456e+00	1.8764e-01
1.1876e+01	1.4459e+00	2.2758e-01
1.1963e+01	1.4522e+00	2.6810e-01
1.2052e+01	1.4643e+00	3.0679e-01
1.2143e+01	1.4814e+00	3.4123e-01
1.2234e+01	1.5023e+00	3.6927e-01
1.2327e+01	1.5253e+00	3.8925e-01
1.2422e+01	1.5490e+00	4.0016e-01
1.2518e+01	1.5716e+00	4.0161e-01
1.2615e+01	1.5919e+00	3.9385e-01
1.2714e+01	1.6089e+00	3.7768e-01
1.2815e+01	1.6220e+00	3.5432e-01
1.2917e+01	1.6308e+00	3.2536e-01
1.3021e+01	1.6353e+00	2.9256e-01
1.3127e+01	1.6357e+00	2.5775e-01
1.3234e+01	1.6324e+00	2.2268e-01
1.3343e+01	1.6258e+00	1.8892e-01
1.3454e+01	1.6165e+00	1.5772e-01
1.3566e+01	1.6051e+00	1.3004e-01
1.3681e+01	1.5921e+00	1.0644e-01
1.3798e+01	1.5780e+00	8.7160e-02
1.3916e+01	1.5634e+00	7.2165e-02
1.4037e+01	1.5486e+00	6.1182e-02
1.4159e+01	1.5339e+00	5.3802e-02
1.4284e+01	1.5196e+00	4.9536e-02
1.4411e+01	1.5059e+00	4.7885e-02
1.4541e+01	1.4928e+00	4.8380e-02
1.4672e+01	1.4802e+00	5.0610e-02
1.4807e+01	1.4683e+00	5.4239e-02
1.4943e+01	1.4568e+00	5.9006e-02
1.5082e+01	1.4459e+00	6.4718e-02
1.5224e+01	1.4353e+00	7.1240e-02
1.5368e+01	1.4251e+00	7.8480e-02
1.5516e+01	1.4151e+00	8.6380e-02
1.5666e+01	1.4054e+00	9.4904e-02
1.5819e+01	1.3959e+00	1.0403e-01
1.5975e+01	1.3865e+00	1.1374e-01
1.6134e+01	1.3772e+00	1.2401e-01
1.6296e+01	1.3680e+00	1.3485e-01
1.6462e+01	1.3589e+00	1.4624e-01
1.6631e+01	1.3498e+00	1.5815e-01
1.6803e+01	1.3405e+00	1.7058e-01
1.6980e+01	1.3312e+00	1.8350e-01
1.7159e+01	1.3216e+00	1.9689e-01
1.7343e+01	1.3116e+00	2.1075e-01
1.7531e+01	1.3010e+00	2.2506e-01
1.7723e+01	1.2897e+00	2.3983e-01
1.7919e+01	1.2773e+00	2.5509e-01
1.8119e+01	1.2634e+00	2.7091e-01
1.8324e+01	1.2475e+00	2.8740e-01
1.8534e+01	1.2290e+00	3.0477e-01
1.8748e+01	1.2067e+00	3.2337e-01
1.8968e+01	1.1791e+00	3.4388e-01
1.9193e+01	1.1441e+00	3.6759e-01
1.9423e+01	1.0981e+00	3.9721e-01
1.9658e+01	1.0358e+00	4.3894e-01
1.9900e+01	9.5045e-01	5.0844e-01
2.0148e+01	8.4470e-01	6.4838e-01
2.0401e+01	7.9315e-01	9.3424e-01
2.0662e+01	9.5322e-01	1.3601e+00
2.0928e+01	1.3663e+00	1.8076e+00
2.1202e+01	1.8975e+00	2.1187e+00
2.1484e+01	2.3275e+00	2.1600e+00
2.1772e+01	2.5179e+00	1.9490e+00
2.2069e+01	2.5139e+00	1.6647e+00
2.2374e+01	2.4640e+00	1.4665e+00
2.2687e+01	2.4533e+00	1.3424e+00
2.3010e+01	2.4617e+00	1.2075e+00
2.3341e+01	2.4507e+00	1.0311e+00
2.3682e+01	2.4090e+00	8.3215e-01
2.4034e+01	2.3445e+00	6.4195e-01
2.4396e+01	2.2695e+00	4.8481e-01
2.4769e+01	2.1948e+00	3.7135e-01
2.5153e+01	2.1276e+00	2.9914e-01
2.5550e+01	2.0718e+00	2.5803e-01
2.5960e+01	2.0279e+00	2.3627e-01
2.6383e+01	1.9942e+00	2.2452e-01
2.6819e+01	1.9683e+00	2.1695e-01
2.7271e+01	1.9479e+00	2.1060e-01
2.7738e+01	1.9313e+00	2.0426e-01
2.8221e+01	1.9175e+00	1.9754e-01
2.8722e+01	1.9056e+00	1.9040e-01
2.9240e+01	1.8952e+00	1.8288e-01
2.9778e+01	1.8860e+00	1.7508e-01
3.0335e+01	1.8776e+00	1.6707e-01
3.0914e+01	1.8698e+00	1.5893e-01
3.1516e+01	1.8627e+00	1.5072e-01
3.2141e+01	1.8559e+00	1.4250e-01
3.2792e+01	1.8496e+00	1.3434e-01
3.3469e+01	1.8435e+00	1.2627e-01
3.4176e+01	1.8377e+00	1.1833e-01
3.4912e+01	1.8320e+00	1.1058e-01
3.5681e+01	1.8266e+00	1.0304e-01
3.6485e+01	1.8213e+00	9.5734e-02
3.7326e+01	1.8161e+00	8.8694e-02
3.8206e+01	1.8111e+00	8.1937e-02
3.9129e+01	1.8062e+00	7.5480e-02
4.0098e+01	1.8014e+00	6.9334e-02
4.1116e+01	1.7967e+00	6.3507e-02
4.2187e+01	1.7921e+00	5.8005e-02
4.3315e+01	1.7877e+00	5.2829e-02
4.4505e+01	1.7833e+00	4.7977e-02
4.5762e+01	1.7791e+00	4.3448e-02
4.7093e+01	1.7749e+00	3.9233e-02
4.8503e+01	1.7709e+00	3.5327e-02
5.0000e+01	1.7670e+00	3.1719e-02
