Material: main / ZnSe / Adachi
Optical constants. S. Adachi and T. Taguchi. Optical properties of ZnSe, Phys. Rev. B 43, 9569-9577 (1991)[Calculation script (Python)]
wavelength (um)	n	k
2.3393e-01	2.0894e+00	1.8148e+00
2.3444e-01	2.1005e+00	1.8294e+00
2.3494e-01	2.1124e+00	1.8438e+00
2.3545e-01	2.1252e+00	1.8579e+00
2.3596e-01	2.1389e+00	1.8718e+00
2.3648e-01	2.1534e+00	1.8853e+00
2.3699e-01	2.1687e+00	1.8984e+00
2.3751e-01	2.1849e+00	1.9111e+00
2.3803e-01	2.2018e+00	1.9232e+00
2.3856e-01	2.2195e+00	1.9348e+00
2.3908e-01	2.2379e+00	1.9459e+00
2.3961e-01	2.2571e+00	1.9562e+00
2.4014e-01	2.2768e+00	1.9659e+00
2.4067e-01	2.2972e+00	1.9749e+00
2.4120e-01	2.3182e+00	1.9831e+00
2.4174e-01	2.3397e+00	1.9906e+00
2.4228e-01	2.3616e+00	1.9972e+00
2.4282e-01	2.3840e+00	2.0031e+00
2.4336e-01	2.4067e+00	2.0081e+00
2.4391e-01	2.4297e+00	2.0123e+00
2.4446e-01	2.4530e+00	2.0157e+00
2.4501e-01	2.4766e+00	2.0183e+00
2.4556e-01	2.5003e+00	2.0200e+00
2.4612e-01	2.5241e+00	2.0210e+00
2.4668e-01	2.5481e+00	2.0212e+00
2.4724e-01	2.5722e+00	2.0207e+00
2.4780e-01	2.5964e+00	2.0194e+00
2.4837e-01	2.6207e+00	2.0173e+00
2.4894e-01	2.6450e+00	2.0146e+00
2.4951e-01	2.6694e+00	2.0111e+00
2.5009e-01	2.6938e+00	2.0069e+00
2.5066e-01	2.7183e+00	2.0019e+00
2.5124e-01	2.7429e+00	1.9963e+00
2.5183e-01	2.7675e+00	1.9899e+00
2.5241e-01	2.7921e+00	1.9827e+00
2.5300e-01	2.8168e+00	1.9746e+00
2.5359e-01	2.8415e+00	1.9658e+00
2.5418e-01	2.8661e+00	1.9561e+00
2.5478e-01	2.8908e+00	1.9454e+00
2.5538e-01	2.9153e+00	1.9338e+00
2.5598e-01	2.9397e+00	1.9213e+00
2.5658e-01	2.9638e+00	1.9077e+00
2.5719e-01	2.9877e+00	1.8931e+00
2.5780e-01	3.0113e+00	1.8774e+00
2.5841e-01	3.0344e+00	1.8607e+00
2.5903e-01	3.0570e+00	1.8430e+00
2.5965e-01	3.0790e+00	1.8242e+00
2.6027e-01	3.1003e+00	1.8044e+00
2.6090e-01	3.1209e+00	1.7837e+00
2.6152e-01	3.1406e+00	1.7620e+00
2.6215e-01	3.1594e+00	1.7395e+00
2.6279e-01	3.1771e+00	1.7162e+00
2.6343e-01	3.1938e+00	1.6922e+00
2.6407e-01	3.2094e+00	1.6675e+00
2.6471e-01	3.2238e+00	1.6423e+00
2.6536e-01	3.2371e+00	1.6167e+00
2.6601e-01	3.2491e+00	1.5908e+00
2.6666e-01	3.2599e+00	1.5646e+00
2.6731e-01	3.2695e+00	1.5382e+00
2.6797e-01	3.2779e+00	1.5117e+00
2.6864e-01	3.2851e+00	1.4853e+00
2.6930e-01	3.2911e+00	1.4590e+00
2.6997e-01	3.2961e+00	1.4329e+00
2.7064e-01	3.2999e+00	1.4070e+00
2.7132e-01	3.3027e+00	1.3815e+00
2.7200e-01	3.3046e+00	1.3563e+00
2.7268e-01	3.3055e+00	1.3316e+00
2.7337e-01	3.3055e+00	1.3073e+00
2.7406e-01	3.3047e+00	1.2835e+00
2.7475e-01	3.3032e+00	1.2603e+00
2.7545e-01	3.3009e+00	1.2376e+00
2.7615e-01	3.2980e+00	1.2155e+00
2.7685e-01	3.2945e+00	1.1940e+00
2.7756e-01	3.2905e+00	1.1732e+00
2.7827e-01	3.2860e+00	1.1529e+00
2.7898e-01	3.2810e+00	1.1332e+00
2.7970e-01	3.2756e+00	1.1142e+00
2.8042e-01	3.2699e+00	1.0957e+00
2.8115e-01	3.2639e+00	1.0779e+00
2.8188e-01	3.2576e+00	1.0606e+00
2.8261e-01	3.2511e+00	1.0440e+00
2.8335e-01	3.2443e+00	1.0279e+00
2.8409e-01	3.2374e+00	1.0123e+00
2.8483e-01	3.2304e+00	9.9732e-01
2.8558e-01	3.2232e+00	9.8284e-01
2.8634e-01	3.2160e+00	9.6888e-01
2.8709e-01	3.2086e+00	9.5540e-01
2.8785e-01	3.2012e+00	9.4240e-01
2.8862e-01	3.1938e+00	9.2987e-01
2.8939e-01	3.1864e+00	9.1778e-01
2.9016e-01	3.1789e+00	9.0612e-01
2.9094e-01	3.1715e+00	8.9487e-01
2.9172e-01	3.1641e+00	8.8403e-01
2.9250e-01	3.1568e+00	8.7356e-01
2.9329e-01	3.1495e+00	8.6347e-01
2.9409e-01	3.1422e+00	8.5372e-01
2.9488e-01	3.1350e+00	8.4432e-01
2.9569e-01	3.1279e+00	8.3524e-01
2.9649e-01	3.1209e+00	8.2648e-01
2.9730e-01	3.1139e+00	8.1801e-01
2.9812e-01	3.1071e+00	8.0983e-01
2.9894e-01	3.1003e+00	8.0193e-01
2.9977e-01	3.0936e+00	7.9429e-01
3.0060e-01	3.0871e+00	7.8690e-01
3.0143e-01	3.0806e+00	7.7975e-01
3.0227e-01	3.0742e+00	7.7283e-01
3.0311e-01	3.0680e+00	7.6613e-01
3.0396e-01	3.0619e+00	7.5965e-01
3.0481e-01	3.0558e+00	7.5336e-01
3.0567e-01	3.0499e+00	7.4727e-01
3.0653e-01	3.0441e+00	7.4136e-01
3.0740e-01	3.0384e+00	7.3562e-01
3.0827e-01	3.0329e+00	7.3006e-01
3.0915e-01	3.0274e+00	7.2465e-01
3.1003e-01	3.0221e+00	7.1939e-01
3.1092e-01	3.0168e+00	7.1429e-01
3.1181e-01	3.0117e+00	7.0932e-01
3.1271e-01	3.0067e+00	7.0448e-01
3.1361e-01	3.0019e+00	6.9977e-01
3.1452e-01	2.9971e+00	6.9518e-01
3.1543e-01	2.9924e+00	6.9070e-01
3.1635e-01	2.9879e+00	6.8633e-01
3.1727e-01	2.9835e+00	6.8207e-01
3.1820e-01	2.9792e+00	6.7790e-01
3.1914e-01	2.9750e+00	6.7383e-01
3.2008e-01	2.9709e+00	6.6984e-01
3.2102e-01	2.9669e+00	6.6594e-01
3.2197e-01	2.9630e+00	6.6212e-01
3.2293e-01	2.9592e+00	6.5837e-01
3.2389e-01	2.9556e+00	6.5469e-01
3.2486e-01	2.9520e+00	6.5107e-01
3.2584e-01	2.9486e+00	6.4752e-01
3.2682e-01	2.9452e+00	6.4403e-01
3.2780e-01	2.9419e+00	6.4059e-01
3.2879e-01	2.9388e+00	6.3721e-01
3.2979e-01	2.9357e+00	6.3386e-01
3.3080e-01	2.9328e+00	6.3057e-01
3.3181e-01	2.9299e+00	6.2731e-01
3.3282e-01	2.9272e+00	6.2409e-01
3.3385e-01	2.9245e+00	6.2091e-01
3.3487e-01	2.9219e+00	6.1775e-01
3.3591e-01	2.9194e+00	6.1462e-01
3.3695e-01	2.9171e+00	6.1152e-01
3.3800e-01	2.9148e+00	6.0844e-01
3.3906e-01	2.9125e+00	6.0538e-01
3.4012e-01	2.9104e+00	6.0233e-01
3.4118e-01	2.9084e+00	5.9929e-01
3.4226e-01	2.9064e+00	5.9627e-01
3.4334e-01	2.9046e+00	5.9325e-01
3.4443e-01	2.9028e+00	5.9023e-01
3.4552e-01	2.9011e+00	5.8722e-01
3.4663e-01	2.8995e+00	5.8420e-01
3.4774e-01	2.8979e+00	5.8118e-01
3.4885e-01	2.8965e+00	5.7815e-01
3.4998e-01	2.8951e+00	5.7512e-01
3.5111e-01	2.8938e+00	5.7207e-01
3.5225e-01	2.8926e+00	5.6900e-01
3.5339e-01	2.8914e+00	5.6591e-01
3.5454e-01	2.8903e+00	5.6281e-01
3.5571e-01	2.8893e+00	5.5968e-01
3.5687e-01	2.8883e+00	5.5652e-01
3.5805e-01	2.8874e+00	5.5333e-01
3.5923e-01	2.8866e+00	5.5011e-01
3.6043e-01	2.8858e+00	5.4685e-01
3.6163e-01	2.8851e+00	5.4356e-01
3.6283e-01	2.8845e+00	5.4022e-01
3.6405e-01	2.8839e+00	5.3683e-01
3.6527e-01	2.8833e+00	5.3339e-01
3.6650e-01	2.8828e+00	5.2991e-01
3.6775e-01	2.8824e+00	5.2636e-01
3.6899e-01	2.8820e+00	5.2276e-01
3.7025e-01	2.8816e+00	5.1910e-01
3.7152e-01	2.8812e+00	5.1536e-01
3.7279e-01	2.8809e+00	5.1156e-01
3.7408e-01	2.8806e+00	5.0769e-01
3.7537e-01	2.8803e+00	5.0374e-01
3.7667e-01	2.8800e+00	4.9971e-01
3.7798e-01	2.8796e+00	4.9561e-01
3.7930e-01	2.8793e+00	4.9142e-01
3.8063e-01	2.8789e+00	4.8715e-01
3.8197e-01	2.8784e+00	4.8281e-01
3.8331e-01	2.8778e+00	4.7840e-01
3.8467e-01	2.8771e+00	4.7392e-01
3.8604e-01	2.8762e+00	4.6941e-01
3.8741e-01	2.8752e+00	4.6490e-01
3.8880e-01	2.8738e+00	4.6044e-01
3.9020e-01	2.8721e+00	4.5613e-01
3.9160e-01	2.8699e+00	4.5213e-01
3.9302e-01	2.8672e+00	4.4871e-01
3.9445e-01	2.8638e+00	4.4635e-01
3.9588e-01	2.8600e+00	4.4585e-01
3.9733e-01	2.8565e+00	4.4857e-01
3.9879e-01	2.8558e+00	4.5610e-01
4.0026e-01	2.8642e+00	4.6755e-01
4.0174e-01	2.8870e+00	4.7245e-01
4.0323e-01	2.9123e+00	4.5732e-01
4.0473e-01	2.9227e+00	4.3082e-01
4.0625e-01	2.9202e+00	4.0786e-01
4.0777e-01	2.9132e+00	3.9153e-01
4.0931e-01	2.9056e+00	3.7996e-01
4.1085e-01	2.8987e+00	3.7124e-01
4.1241e-01	2.8928e+00	3.6419e-01
4.1399e-01	2.8877e+00	3.5811e-01
4.1557e-01	2.8833e+00	3.5260e-01
4.1716e-01	2.8795e+00	3.4741e-01
4.1877e-01	2.8761e+00	3.4240e-01
4.2039e-01	2.8732e+00	3.3747e-01
4.2203e-01	2.8705e+00	3.3255e-01
4.2367e-01	2.8680e+00	3.2759e-01
4.2533e-01	2.8657e+00	3.2256e-01
4.2700e-01	2.8636e+00	3.1744e-01
4.2869e-01	2.8616e+00	3.1219e-01
4.3038e-01	2.8596e+00	3.0680e-01
4.3210e-01	2.8576e+00	3.0126e-01
4.3382e-01	2.8556e+00	2.9555e-01
4.3556e-01	2.8535e+00	2.8967e-01
4.3731e-01	2.8512e+00	2.8362e-01
4.3908e-01	2.8487e+00	2.7739e-01
4.4086e-01	2.8460e+00	2.7100e-01
4.4266e-01	2.8428e+00	2.6447e-01
4.4447e-01	2.8391e+00	2.5786e-01
4.4629e-01	2.8348e+00	2.5128e-01
4.4814e-01	2.8295e+00	2.4488e-01
4.4999e-01	2.8232e+00	2.3897e-01
4.5186e-01	2.8154e+00	2.3410e-01
4.5375e-01	2.8059e+00	2.3125e-01
4.5565e-01	2.7947e+00	2.3221e-01
4.5757e-01	2.7834e+00	2.4001e-01
4.5951e-01	2.7772e+00	2.5854e-01
4.6146e-01	2.7897e+00	2.8625e-01
4.6343e-01	2.8321e+00	3.0044e-01
4.6541e-01	2.8788e+00	2.7400e-01
4.6741e-01	2.8953e+00	2.2600e-01
4.6943e-01	2.8869e+00	1.8521e-01
4.7147e-01	2.8694e+00	1.5736e-01
4.7353e-01	2.8505e+00	1.3903e-01
4.7560e-01	2.8327e+00	1.2666e-01
4.7769e-01	2.8166e+00	1.1797e-01
4.7980e-01	2.8021e+00	1.1159e-01
4.8193e-01	2.7890e+00	1.0673e-01
4.8407e-01	2.7770e+00	1.0290e-01
4.8624e-01	2.7660e+00	9.9790e-02
4.8843e-01	2.7558e+00	9.7197e-02
4.9063e-01	2.7463e+00	9.4990e-02
4.9286e-01	2.7374e+00	9.3075e-02
4.9510e-01	2.7290e+00	9.1387e-02
4.9737e-01	2.7211e+00	8.9878e-02
4.9966e-01	2.7135e+00	8.8513e-02
5.0197e-01	2.7063e+00	8.7265e-02
5.0430e-01	2.6994e+00	8.6114e-02
5.0665e-01	2.6927e+00	8.5044e-02
5.0902e-01	2.6863e+00	8.4043e-02
5.1142e-01	2.6801e+00	8.3101e-02
5.1384e-01	2.6741e+00	8.2210e-02
5.1628e-01	2.6683e+00	8.1364e-02
5.1874e-01	2.6627e+00	8.0556e-02
5.2123e-01	2.6573e+00	7.9783e-02
5.2374e-01	2.6520e+00	7.9041e-02
5.2628e-01	2.6468e+00	7.8326e-02
5.2884e-01	2.6418e+00	7.7637e-02
5.3143e-01	2.6368e+00	7.6970e-02
5.3404e-01	2.6320e+00	7.6324e-02
5.3668e-01	2.6273e+00	7.5698e-02
5.3934e-01	2.6227e+00	7.5089e-02
5.4203e-01	2.6182e+00	7.4496e-02
5.4475e-01	2.6138e+00	7.3919e-02
5.4750e-01	2.6095e+00	7.3356e-02
5.5027e-01	2.6052e+00	7.2806e-02
5.5307e-01	2.6011e+00	7.2269e-02
5.5590e-01	2.5970e+00	7.1744e-02
5.5876e-01	2.5930e+00	7.1231e-02
5.6165e-01	2.5890e+00	7.0728e-02
5.6457e-01	2.5851e+00	7.0236e-02
5.6752e-01	2.5813e+00	6.9753e-02
5.7050e-01	2.5775e+00	6.9280e-02
5.7351e-01	2.5738e+00	6.8816e-02
5.7655e-01	2.5702e+00	6.8361e-02
5.7963e-01	2.5666e+00	6.7914e-02
5.8273e-01	2.5630e+00	6.7476e-02
5.8588e-01	2.5595e+00	6.7045e-02
5.8905e-01	2.5561e+00	6.6622e-02
5.9226e-01	2.5527e+00	6.6207e-02
5.9551e-01	2.5493e+00	6.5799e-02
5.9879e-01	2.5460e+00	6.5398e-02
6.0211e-01	2.5428e+00	6.5004e-02
6.0547e-01	2.5395e+00	6.4617e-02
6.0886e-01	2.5364e+00	6.4237e-02
6.1229e-01	2.5332e+00	6.3863e-02
6.1576e-01	2.5301e+00	6.3496e-02
6.1927e-01	2.5270e+00	6.3136e-02
6.2282e-01	2.5240e+00	6.2781e-02
6.2641e-01	2.5210e+00	6.2433e-02
6.3004e-01	2.5180e+00	6.2091e-02
6.3372e-01	2.5151e+00	6.1755e-02
6.3744e-01	2.5122e+00	6.1425e-02
6.4120e-01	2.5093e+00	6.1101e-02
6.4500e-01	2.5065e+00	6.0783e-02
6.4886e-01	2.5037e+00	6.0471e-02
6.5275e-01	2.5009e+00	6.0165e-02
6.5670e-01	2.4981e+00	5.9865e-02
6.6069e-01	2.4954e+00	5.9571e-02
6.6474e-01	2.4927e+00	5.9282e-02
6.6883e-01	2.4900e+00	5.8999e-02
6.7297e-01	2.4874e+00	5.8723e-02
6.7716e-01	2.4848e+00	5.8452e-02
6.8141e-01	2.4822e+00	5.8186e-02
6.8571e-01	2.4796e+00	5.7927e-02
6.9007e-01	2.4770e+00	5.7674e-02
6.9448e-01	2.4745e+00	5.7426e-02
6.9895e-01	2.4720e+00	5.7184e-02
7.0347e-01	2.4695e+00	5.6949e-02
7.0806e-01	2.4671e+00	5.6719e-02
7.1270e-01	2.4646e+00	5.6496e-02
7.1741e-01	2.4622e+00	5.6278e-02
7.2217e-01	2.4598e+00	5.6067e-02
7.2701e-01	2.4574e+00	5.5862e-02
7.3190e-01	2.4550e+00	5.5663e-02
7.3687e-01	2.4527e+00	5.5471e-02
7.4190e-01	2.4504e+00	5.5285e-02
7.4700e-01	2.4481e+00	5.5106e-02
7.5217e-01	2.4458e+00	5.4934e-02
7.5742e-01	2.4435e+00	5.4768e-02
7.6273e-01	2.4413e+00	5.4609e-02
7.6813e-01	2.4390e+00	5.4457e-02
7.7359e-01	2.4368e+00	5.4312e-02
7.7914e-01	2.4346e+00	5.4174e-02
7.8477e-01	2.4324e+00	5.4044e-02
7.9048e-01	2.4302e+00	5.3922e-02
7.9627e-01	2.4281e+00	5.3807e-02
8.0215e-01	2.4259e+00	5.3700e-02
8.0812e-01	2.4238e+00	5.3600e-02
8.1417e-01	2.4217e+00	5.3510e-02
8.2032e-01	2.4195e+00	5.3427e-02
8.2656e-01	2.4175e+00	5.3353e-02
