Material: main / Te / Guo-e
Optical constants. Z. Guo, H. Gu, M. Fang, L. Yed, S. Liu, Giant in-plane optical and electronic anisotropy of tellurene: a quantitative exploration, Nanoscale, 14, 12238â€“12246 (2022) (Numerical data kindly provided by Zhengfeng Guo)
Comments: Tellurene. Extraordinary ray (e).
wavelength (um)	n	k
0.400	0.8528	2.54422	0.405	0.8711	2.57785	0.410	0.8897	2.61141	0.415	0.9086	2.64492	0.420	0.9278	2.67837	0.425	0.9473	2.71177	0.430	0.9671	2.74513	0.435	0.9873	2.77844	0.440	1.0078	2.81170	0.445	1.0287	2.84492	0.450	1.0500	2.87809	0.455	1.0717	2.91120	0.460	1.0938	2.94427	0.465	1.1163	2.97728	0.470	1.1393	3.01023	0.475	1.1627	3.04311	0.480	1.1866	3.07591	0.485	1.2111	3.10863	0.490	1.2360	3.14125	0.495	1.2615	3.17377	0.500	1.2876	3.20616	0.505	1.3142	3.23842	0.510	1.3414	3.27052	0.515	1.3693	3.30245	0.520	1.3978	3.33418	0.525	1.4270	3.36569	0.530	1.4568	3.39696	0.532	1.4696	3.41001	0.535	1.4874	3.42795	0.540	1.5186	3.45863	0.545	1.5506	3.48897	0.550	1.5834	3.51893	0.555	1.6169	3.54847	0.560	1.6511	3.57755	0.565	1.6862	3.60612	0.570	1.7221	3.63414	0.575	1.7587	3.66156	0.580	1.7962	3.68832	0.585	1.8345	3.71437	0.590	1.8735	3.73964	0.595	1.9133	3.76409	0.600	1.9539	3.78764	0.605	1.9952	3.81024	0.610	2.0373	3.83182	0.615	2.0800	3.85232	0.620	2.1233	3.87168	0.625	2.1673	3.88984	0.630	2.2118	3.90673	0.635	2.2568	3.92230	0.640	2.3022	3.93649	0.645	2.3479	3.94925	0.650	2.3939	3.96054	0.655	2.4401	3.97032	0.660	2.4864	3.97856	0.665	2.5328	3.98522	0.670	2.5790	3.99030	0.675	2.6250	3.99377	0.680	2.6707	3.99565	0.685	2.7161	3.99594	0.690	2.7609	3.99466	0.695	2.8051	3.99184	0.700	2.8487	3.98751	0.705	2.8914	3.98172	0.710	2.9332	3.97454	0.715	2.9741	3.96601	0.720	3.0139	3.95621	0.725	3.0525	3.94523	0.730	3.0900	3.93314	0.735	3.1262	3.92003	0.740	3.1612	3.90599	0.745	3.1947	3.89113	0.750	3.2269	3.87553	0.755	3.2577	3.85930	0.760	3.2872	3.84252	0.765	3.3152	3.82530	0.770	3.3417	3.80773	0.775	3.3669	3.78989	0.780	3.3908	3.77188	0.785	3.4132	3.75378	0.790	3.4344	3.73566	0.795	3.4543	3.71759	0.800	3.4729	3.69965	0.805	3.4903	3.68190	0.810	3.5066	3.66439	0.815	3.5217	3.64718	0.820	3.5358	3.63031	0.825	3.5489	3.61382	0.830	3.5610	3.59775	0.835	3.5722	3.58214	0.840	3.5825	3.56699	0.845	3.5920	3.55235	0.850	3.6008	3.53823	0.855	3.6089	3.52464	0.860	3.6163	3.51160	0.865	3.6231	3.49910	0.870	3.6293	3.48717	0.875	3.6350	3.47579	0.880	3.6402	3.46498	0.885	3.6449	3.45473	0.890	3.6493	3.44503	0.895	3.6533	3.43588	0.900	3.6569	3.42728
