Material: main / C / Ermolaev
Optical constants. G. A. Ermolaev, A. P. Tsapenko, V. S. Volkov, A. S. Anisimov, Y. G. Gladush, A. G. Nasibulin, Express determination of thickness and dielectric function of single-walled carbon nanotube films, Appl. Phys. Lett., 116, 231103 (2020) (Numerical data kindly provided by Georgy Ermolaev)
Comments: Broadband optical constants of aerosol CVD SWCNTs in the spectral range 250â€“3300 nm.
Specs: {"n_absolute": true, "wavelength_vacuum": true, "substrate": "glass"}
wavelength (um)	n	k
0.250	1.10919	0.56206
0.258	1.16205	0.60093
0.266	1.22701	0.62152
0.274	1.29393	0.62029
0.282	1.35280	0.60000
0.290	1.39764	0.56785
0.298	1.42762	0.53156
0.306	1.44521	0.49666
0.314	1.45396	0.46592
0.322	1.45699	0.44016
0.330	1.45662	0.41923
0.338	1.45441	0.40248
0.346	1.45133	0.38923
0.354	1.44797	0.37878
0.362	1.44469	0.37060
0.370	1.44166	0.36420
0.378	1.43897	0.35924
0.386	1.43666	0.35541
0.394	1.43474	0.35248
0.402	1.43318	0.35029
0.410	1.43197	0.34867
0.418	1.43106	0.34751
0.426	1.43043	0.34674
0.434	1.43005	0.34626
0.442	1.42988	0.34603
0.450	1.42990	0.34601
0.458	1.43008	0.34614
0.466	1.43039	0.34641
0.474	1.43082	0.34678
0.482	1.43135	0.34725
0.490	1.43195	0.34779
0.498	1.43262	0.34838
0.506	1.43333	0.34903
0.514	1.43408	0.34972
0.522	1.43485	0.35045
0.530	1.43564	0.35122
0.538	1.43643	0.35201
0.546	1.43722	0.35282
0.554	1.43799	0.35367
0.562	1.43875	0.35453
0.570	1.43949	0.35542
0.578	1.44019	0.35634
0.586	1.44086	0.35728
0.594	1.44149	0.35825
0.602	1.44208	0.35925
0.610	1.44262	0.36028
0.618	1.44311	0.36134
0.626	1.44355	0.36243
0.634	1.44393	0.36357
0.642	1.44425	0.36476
0.650	1.44452	0.36598
0.658	1.44472	0.36727
0.666	1.44486	0.36860
0.674	1.44493	0.37001
0.682	1.44494	0.37148
0.690	1.44488	0.37303
0.698	1.44475	0.37466
0.706	1.44457	0.37639
0.714	1.44431	0.37823
0.722	1.44400	0.38017
0.730	1.44363	0.38225
0.738	1.44321	0.38447
0.746	1.44275	0.38683
0.754	1.44226	0.38938
0.762	1.44175	0.39211
0.770	1.44125	0.39506
0.778	1.44078	0.39822
0.786	1.44037	0.40162
0.794	1.44007	0.40529
0.802	1.43992	0.40924
0.810	1.44000	0.41344
0.818	1.44037	0.41788
0.826	1.44112	0.42256
0.834	1.44233	0.42739
0.842	1.44408	0.43226
0.850	1.44643	0.43705
0.858	1.44938	0.44158
0.866	1.45293	0.44570
0.874	1.45693	0.44918
0.882	1.46124	0.45190
0.890	1.46559	0.45375
0.898	1.46976	0.45477
0.906	1.47351	0.45502
0.914	1.47663	0.45468
0.922	1.47904	0.45396
0.930	1.48073	0.45304
0.938	1.48169	0.45213
0.946	1.48201	0.45135
0.954	1.48177	0.45082
0.962	1.48108	0.45059
0.970	1.48002	0.45072
0.978	1.47866	0.45122
0.986	1.47711	0.45209
0.994	1.47540	0.45332
1.002	1.47358	0.45491
1.010	1.47168	0.45683
1.018	1.46975	0.45908
1.026	1.46781	0.46164
1.034	1.46587	0.46450
1.042	1.46399	0.46762
1.050	1.46213	0.47105
1.058	1.46036	0.47471
1.066	1.45864	0.47866
1.074	1.45703	0.48283
1.082	1.45553	0.48723
1.090	1.45414	0.49192
1.098	1.45290	0.49678
1.106	1.45180	0.50193
1.114	1.45089	0.50723
1.122	1.45015	0.51279
1.130	1.44963	0.51851
1.138	1.44933	0.52440
1.146	1.44928	0.53054
1.154	1.44948	0.53676
1.162	1.44998	0.54320
1.170	1.45077	0.54968
1.178	1.45190	0.55635
1.186	1.45336	0.56302
1.194	1.45518	0.56978
1.202	1.45736	0.57653
1.210	1.45991	0.58325
1.218	1.46283	0.58986
1.226	1.46618	0.59646
1.234	1.46990	0.60287
1.242	1.47397	0.60909
1.250	1.47843	0.61508
1.258	1.48322	0.62079
1.266	1.48832	0.62621
1.274	1.49372	0.63123
1.282	1.49935	0.63589
1.290	1.50520	0.64012
1.298	1.51119	0.64389
1.306	1.51730	0.64722
1.314	1.52345	0.65004
1.322	1.52960	0.65242
1.330	1.53569	0.65428
1.338	1.54167	0.65570
1.346	1.54748	0.65666
1.354	1.55309	0.65719
1.362	1.55845	0.65734
1.370	1.56350	0.65711
1.378	1.56824	0.65657
1.386	1.57262	0.65574
1.394	1.57661	0.65467
1.402	1.58025	0.65341
1.410	1.58346	0.65199
1.418	1.58627	0.65045
1.426	1.58869	0.64885
1.434	1.59073	0.64721
1.442	1.59234	0.64558
1.450	1.59359	0.64398
1.458	1.59449	0.64245
1.466	1.59505	0.64100
1.474	1.59525	0.63967
1.482	1.59514	0.63848
1.490	1.59474	0.63745
1.498	1.59407	0.63658
1.506	1.59315	0.63589
1.514	1.59199	0.63540
1.522	1.59060	0.63512
1.530	1.58900	0.63506
1.538	1.58721	0.63522
1.546	1.58526	0.63561
1.554	1.58315	0.63622
1.562	1.58091	0.63706
1.570	1.57853	0.63814
1.578	1.57605	0.63946
1.586	1.57346	0.64101
1.594	1.57077	0.64281
1.602	1.56801	0.64485
1.610	1.56519	0.64713
1.618	1.56230	0.64966
1.626	1.55936	0.65243
1.634	1.55638	0.65544
1.642	1.55337	0.65870
1.650	1.55034	0.66220
1.658	1.54730	0.66596
1.666	1.54424	0.66995
1.674	1.54120	0.67419
1.682	1.53816	0.67867
1.690	1.53514	0.68341
1.698	1.53214	0.68838
1.706	1.52918	0.69359
1.714	1.52626	0.69909
1.722	1.52340	0.70484
1.730	1.52060	0.71083
1.738	1.51786	0.71709
1.746	1.51520	0.72359
1.754	1.51262	0.73033
1.762	1.51013	0.73732
1.770	1.50775	0.74461
1.778	1.50550	0.75216
1.786	1.50338	0.75995
1.794	1.50138	0.76801
1.802	1.49952	0.77631
1.810	1.49782	0.78485
1.818	1.49632	0.79373
1.826	1.49500	0.80284
1.834	1.49387	0.81217
1.842	1.49292	0.82174
1.850	1.49223	0.83164
1.858	1.49180	0.84177
1.866	1.49159	0.85211
1.874	1.49161	0.86267
1.882	1.49198	0.87355
1.890	1.49266	0.88464
1.898	1.49360	0.89591
1.906	1.49483	0.90738
1.914	1.49654	0.91916
1.922	1.49856	0.93109
1.930	1.50088	0.94317
1.938	1.50369	0.95546
1.946	1.50692	0.96794
1.954	1.51049	0.98053
1.962	1.51456	0.99326
1.970	1.51914	1.00611
1.978	1.52408	1.01905
1.986	1.52958	1.03211
1.994	1.53564	1.04520
2.002	1.54207	1.05831
2.010	1.54914	1.07145
2.018	1.55678	1.08458
2.026	1.56480	1.09771
2.034	1.57361	1.11071
2.042	1.58288	1.12364
2.050	1.59264	1.13650
2.058	1.60320	1.14910
2.066	1.61411	1.16158
2.074	1.62574	1.17380
2.082	1.63796	1.18576
2.090	1.65060	1.19756
2.098	1.66409	1.20881
2.106	1.67786	1.21987
2.114	1.69238	1.23040
2.122	1.70738	1.24056
2.130	1.72286	1.25033
2.138	1.73898	1.25939
2.146	1.75530	1.26822
2.154	1.77242	1.27602
2.162	1.78971	1.28359
2.170	1.80761	1.29025
2.178	1.82573	1.29641
2.186	1.84421	1.30178
2.194	1.86295	1.30640
2.202	1.88191	1.31041
2.210	1.90115	1.31341
2.218	1.92050	1.31597
2.226	1.93995	1.31729
2.234	1.95942	1.31831
2.242	1.97889	1.31794
2.250	1.99835	1.31740
2.258	2.01766	1.31536
2.266	2.03697	1.31324
2.274	2.05582	1.30959
2.282	2.07467	1.30591
2.290	2.09297	1.30074
2.298	2.11126	1.29556
2.306	2.12874	1.28901
2.314	2.14620	1.28243
2.322	2.16277	1.27466
2.330	2.17926	1.26678
2.338	2.19486	1.25793
2.346	2.21029	1.24889
2.354	2.22479	1.23916
2.362	2.23895	1.22916
2.370	2.25235	1.21871
2.378	2.26519	1.20792
2.386	2.27750	1.19688
2.394	2.28901	1.18547
2.402	2.30024	1.17398
2.410	2.31035	1.16218
2.418	2.32045	1.15038
2.426	2.32925	1.13837
2.434	2.33799	1.12635
2.442	2.34584	1.11426
2.450	2.35327	1.10214
2.458	2.36023	1.09008
2.466	2.36639	1.07808
2.474	2.37251	1.06610
2.482	2.37750	1.05433
2.490	2.38248	1.04255
2.498	2.38677	1.03098
2.506	2.39069	1.01951
2.514	2.39437	1.00815
2.522	2.39730	0.99712
2.530	2.40023	0.98610
2.538	2.40247	0.97545
2.546	2.40453	0.96491
2.554	2.40636	0.95452
2.562	2.40766	0.94448
2.570	2.40895	0.93444
2.578	2.40973	0.92486
2.586	2.41035	0.91541
2.594	2.41086	0.90607
2.602	2.41091	0.89719
2.610	2.41096	0.88832
2.618	2.41073	0.87977
2.626	2.41029	0.87146
2.634	2.40986	0.86314
2.642	2.40904	0.85538
2.650	2.40820	0.84767
2.658	2.40729	0.84007
2.666	2.40611	0.83290
2.674	2.40493	0.82573
2.682	2.40362	0.81883
2.690	2.40218	0.81223
2.698	2.40074	0.80562
2.706	2.39915	0.79937
2.714	2.39749	0.79329
2.722	2.39583	0.78720
2.730	2.39403	0.78153
2.738	2.39220	0.77593
2.746	2.39038	0.77032
2.754	2.38844	0.76519
2.762	2.38650	0.76007
2.770	2.38455	0.75497
2.778	2.38252	0.75030
2.786	2.38049	0.74562
2.794	2.37846	0.74096
2.802	2.37637	0.73669
2.810	2.37428	0.73242
2.818	2.37219	0.72815
2.826	2.37007	0.72428
2.834	2.36796	0.72041
2.842	2.36584	0.71653
2.850	2.36372	0.71299
2.858	2.36160	0.70948
2.866	2.35948	0.70596
2.874	2.35736	0.70270
2.882	2.35524	0.69952
2.890	2.35312	0.69633
2.898	2.35102	0.69333
2.906	2.34893	0.69046
2.914	2.34684	0.68759
2.922	2.34476	0.68482
2.930	2.34271	0.68224
2.938	2.34066	0.67966
2.946	2.33861	0.67708
2.954	2.33659	0.67475
2.962	2.33458	0.67243
2.970	2.33257	0.67011
2.978	2.33059	0.66795
2.986	2.32864	0.66588
2.994	2.32668	0.66381
3.002	2.32474	0.66178
3.010	2.32284	0.65994
3.018	2.32094	0.65810
3.026	2.31905	0.65626
3.034	2.31719	0.65455
3.042	2.31535	0.65291
3.050	2.31351	0.65128
3.058	2.31168	0.64966
3.066	2.30991	0.64822
3.074	2.30814	0.64678
3.082	2.30638	0.64534
3.090	2.30464	0.64398
3.098	2.30294	0.64272
3.106	2.30124	0.64146
3.114	2.29954	0.64019
3.122	2.29789	0.63905
3.130	2.29625	0.63795
3.138	2.29462	0.63685
3.146	2.29298	0.63575
3.154	2.29142	0.63479
3.162	2.28986	0.63385
3.170	2.28830	0.63290
3.178	2.28674	0.63197
3.186	2.28525	0.63116
3.194	2.28375	0.63034
3.202	2.28225	0.62953
3.210	2.28077	0.62875
3.218	2.27935	0.62807
3.226	2.27793	0.62739
3.234	2.27650	0.62671
3.242	2.27508	0.62602
3.250	2.27366	0.62534
3.258	2.27224	0.62466
3.266	2.27081	0.62398
3.274	2.26939	0.62330
3.282	2.26797	0.62262
3.290	2.26654	0.62194
3.298	2.26512	0.62126
