Material: main / Pt / Rakic
Optical constants. A. D. Rakić, A. B. Djurišic, J. M. Elazar, and M. L. Majewski. Optical properties of metallic films for vertical-cavity optoelectronic devices, Appl. Opt. 37, 5271-5283 (1998)[Calculation script (Python)]
Comments: Fit of the experimental data from several sources to Brendel-Bormann (BB) model
wavelength (um)	n	k
2.0664e-01	1.7737e+00	1.4893e+00
2.0767e-01	1.7659e+00	1.4881e+00
2.0870e-01	1.7579e+00	1.4873e+00
2.0975e-01	1.7498e+00	1.4869e+00
2.1081e-01	1.7416e+00	1.4868e+00
2.1188e-01	1.7332e+00	1.4871e+00
2.1295e-01	1.7247e+00	1.4879e+00
2.1404e-01	1.7162e+00	1.4890e+00
2.1515e-01	1.7075e+00	1.4905e+00
2.1626e-01	1.6988e+00	1.4925e+00
2.1738e-01	1.6900e+00	1.4949e+00
2.1852e-01	1.6811e+00	1.4977e+00
2.1967e-01	1.6722e+00	1.5009e+00
2.2083e-01	1.6633e+00	1.5046e+00
2.2200e-01	1.6544e+00	1.5087e+00
2.2318e-01	1.6455e+00	1.5133e+00
2.2438e-01	1.6365e+00	1.5183e+00
2.2559e-01	1.6277e+00	1.5238e+00
2.2681e-01	1.6188e+00	1.5297e+00
2.2805e-01	1.6101e+00	1.5361e+00
2.2930e-01	1.6014e+00	1.5429e+00
2.3057e-01	1.5928e+00	1.5502e+00
2.3184e-01	1.5843e+00	1.5579e+00
2.3314e-01	1.5759e+00	1.5661e+00
2.3444e-01	1.5677e+00	1.5747e+00
2.3577e-01	1.5596e+00	1.5838e+00
2.3710e-01	1.5517e+00	1.5933e+00
2.3845e-01	1.5440e+00	1.6033e+00
2.3982e-01	1.5365e+00	1.6136e+00
2.4120e-01	1.5292e+00	1.6244e+00
2.4260e-01	1.5221e+00	1.6356e+00
2.4402e-01	1.5153e+00	1.6473e+00
2.4545e-01	1.5087e+00	1.6593e+00
2.4690e-01	1.5024e+00	1.6717e+00
2.4837e-01	1.4963e+00	1.6845e+00
2.4985e-01	1.4906e+00	1.6976e+00
2.5135e-01	1.4852e+00	1.7111e+00
2.5287e-01	1.4800e+00	1.7250e+00
2.5441e-01	1.4752e+00	1.7392e+00
2.5597e-01	1.4708e+00	1.7537e+00
2.5755e-01	1.4666e+00	1.7685e+00
2.5914e-01	1.4628e+00	1.7836e+00
2.6076e-01	1.4594e+00	1.7990e+00
2.6239e-01	1.4563e+00	1.8147e+00
2.6405e-01	1.4536e+00	1.8306e+00
2.6573e-01	1.4512e+00	1.8467e+00
2.6743e-01	1.4492e+00	1.8631e+00
2.6915e-01	1.4476e+00	1.8797e+00
2.7089e-01	1.4463e+00	1.8965e+00
2.7266e-01	1.4454e+00	1.9134e+00
2.7445e-01	1.4449e+00	1.9306e+00
2.7626e-01	1.4447e+00	1.9479e+00
2.7810e-01	1.4449e+00	1.9654e+00
2.7996e-01	1.4455e+00	1.9830e+00
2.8185e-01	1.4464e+00	2.0007e+00
2.8376e-01	1.4477e+00	2.0186e+00
2.8570e-01	1.4493e+00	2.0365e+00
2.8766e-01	1.4513e+00	2.0546e+00
2.8966e-01	1.4536e+00	2.0727e+00
2.9168e-01	1.4563e+00	2.0909e+00
2.9372e-01	1.4592e+00	2.1092e+00
2.9580e-01	1.4625e+00	2.1276e+00
2.9791e-01	1.4661e+00	2.1460e+00
3.0005e-01	1.4700e+00	2.1645e+00
3.0222e-01	1.4742e+00	2.1830e+00
3.0442e-01	1.4787e+00	2.2016e+00
3.0665e-01	1.4834e+00	2.2202e+00
3.0891e-01	1.4885e+00	2.2388e+00
3.1121e-01	1.4938e+00	2.2574e+00
3.1354e-01	1.4993e+00	2.2761e+00
3.1591e-01	1.5051e+00	2.2949e+00
3.1832e-01	1.5111e+00	2.3136e+00
3.2076e-01	1.5173e+00	2.3324e+00
3.2324e-01	1.5238e+00	2.3512e+00
3.2576e-01	1.5304e+00	2.3700e+00
3.2831e-01	1.5373e+00	2.3889e+00
3.3091e-01	1.5443e+00	2.4078e+00
3.3355e-01	1.5515e+00	2.4268e+00
3.3623e-01	1.5589e+00	2.4458e+00
3.3896e-01	1.5665e+00	2.4648e+00
3.4173e-01	1.5741e+00	2.4840e+00
3.4454e-01	1.5820e+00	2.5031e+00
3.4741e-01	1.5899e+00	2.5224e+00
3.5032e-01	1.5980e+00	2.5418e+00
3.5328e-01	1.6062e+00	2.5612e+00
3.5629e-01	1.6145e+00	2.5808e+00
3.5935e-01	1.6229e+00	2.6004e+00
3.6246e-01	1.6315e+00	2.6202e+00
3.6563e-01	1.6401e+00	2.6402e+00
3.6886e-01	1.6487e+00	2.6603e+00
3.7214e-01	1.6575e+00	2.6806e+00
3.7548e-01	1.6664e+00	2.7010e+00
3.7888e-01	1.6753e+00	2.7217e+00
3.8235e-01	1.6843e+00	2.7426e+00
3.8588e-01	1.6934e+00	2.7637e+00
3.8947e-01	1.7025e+00	2.7851e+00
3.9313e-01	1.7117e+00	2.8068e+00
3.9686e-01	1.7210e+00	2.8288e+00
4.0066e-01	1.7304e+00	2.8511e+00
4.0454e-01	1.7398e+00	2.8737e+00
4.0849e-01	1.7494e+00	2.8967e+00
4.1252e-01	1.7590e+00	2.9201e+00
4.1663e-01	1.7687e+00	2.9439e+00
4.2082e-01	1.7785e+00	2.9682e+00
4.2510e-01	1.7885e+00	2.9929e+00
4.2947e-01	1.7986e+00	3.0181e+00
4.3392e-01	1.8088e+00	3.0438e+00
4.3847e-01	1.8192e+00	3.0700e+00
4.4312e-01	1.8297e+00	3.0968e+00
4.4786e-01	1.8405e+00	3.1241e+00
4.5271e-01	1.8515e+00	3.1521e+00
4.5767e-01	1.8626e+00	3.1807e+00
4.6273e-01	1.8741e+00	3.2100e+00
4.6791e-01	1.8858e+00	3.2399e+00
4.7320e-01	1.8979e+00	3.2706e+00
4.7862e-01	1.9102e+00	3.3020e+00
4.8416e-01	1.9230e+00	3.3341e+00
4.8983e-01	1.9361e+00	3.3670e+00
4.9564e-01	1.9497e+00	3.4007e+00
5.0158e-01	1.9637e+00	3.4352e+00
5.0767e-01	1.9782e+00	3.4706e+00
5.1391e-01	1.9933e+00	3.5068e+00
5.2030e-01	2.0090e+00	3.5439e+00
5.2686e-01	2.0253e+00	3.5819e+00
5.3358e-01	2.0422e+00	3.6208e+00
5.4048e-01	2.0598e+00	3.6606e+00
5.4756e-01	2.0782e+00	3.7013e+00
5.5482e-01	2.0974e+00	3.7430e+00
5.6228e-01	2.1175e+00	3.7856e+00
5.6994e-01	2.1384e+00	3.8291e+00
5.7782e-01	2.1603e+00	3.8737e+00
5.8591e-01	2.1831e+00	3.9191e+00
5.9424e-01	2.2070e+00	3.9655e+00
6.0281e-01	2.2320e+00	4.0129e+00
6.1162e-01	2.2580e+00	4.0612e+00
6.2070e-01	2.2853e+00	4.1104e+00
6.3005e-01	2.3137e+00	4.1605e+00
6.3969e-01	2.3434e+00	4.2116e+00
6.4963e-01	2.3744e+00	4.2636e+00
6.5988e-01	2.4067e+00	4.3164e+00
6.7046e-01	2.4404e+00	4.3702e+00
6.8138e-01	2.4754e+00	4.4248e+00
6.9267e-01	2.5118e+00	4.4803e+00
7.0433e-01	2.5496e+00	4.5366e+00
7.1640e-01	2.5888e+00	4.5938e+00
7.2889e-01	2.6295e+00	4.6518e+00
7.4182e-01	2.6715e+00	4.7107e+00
7.5521e-01	2.7149e+00	4.7704e+00
7.6910e-01	2.7598e+00	4.8311e+00
7.8351e-01	2.8059e+00	4.8928e+00
7.9847e-01	2.8534e+00	4.9555e+00
8.1402e-01	2.9022e+00	5.0193e+00
8.3018e-01	2.9522e+00	5.0843e+00
8.4699e-01	3.0035e+00	5.1508e+00
8.6450e-01	3.0561e+00	5.2188e+00
8.8275e-01	3.1098e+00	5.2887e+00
9.0179e-01	3.1649e+00	5.3607e+00
9.2166e-01	3.2214e+00	5.4350e+00
9.4243e-01	3.2793e+00	5.5122e+00
9.6416e-01	3.3391e+00	5.5926e+00
9.8691e-01	3.4009e+00	5.6766e+00
1.0108e+00	3.4653e+00	5.7648e+00
1.0358e+00	3.5330e+00	5.8576e+00
1.0621e+00	3.6048e+00	5.9554e+00
1.0898e+00	3.6820e+00	6.0586e+00
1.1190e+00	3.7658e+00	6.1674e+00
1.1497e+00	3.8582e+00	6.2814e+00
1.1822e+00	3.9610e+00	6.3999e+00
1.2166e+00	4.0767e+00	6.5215e+00
1.2531e+00	4.2075e+00	6.6435e+00
1.2918e+00	4.3553e+00	6.7622e+00
1.3329e+00	4.5210e+00	6.8720e+00
1.3768e+00	4.7038e+00	6.9663e+00
1.4237e+00	4.9000e+00	7.0369e+00
1.4739e+00	5.1019e+00	7.0760e+00
1.5277e+00	5.2973e+00	7.0775e+00
1.5857e+00	5.4700e+00	7.0396e+00
1.6482e+00	5.6011e+00	6.9666e+00
1.7158e+00	5.6721e+00	6.8707e+00
1.7892e+00	5.6675e+00	6.7713e+00
1.8692e+00	5.5781e+00	6.6940e+00
1.9566e+00	5.4019e+00	6.6677e+00
2.0527e+00	5.1456e+00	6.7230e+00
2.1586e+00	4.8243e+00	6.8897e+00
2.2761e+00	4.4623e+00	7.1935e+00
2.4071e+00	4.0909e+00	7.6523e+00
2.5541e+00	3.7436e+00	8.2734e+00
2.7203e+00	3.4490e+00	9.0545e+00
2.9095e+00	3.2263e+00	9.9913e+00
3.1271e+00	3.0873e+00	1.1084e+01
3.3798e+00	3.0401e+00	1.2344e+01
3.6770e+00	3.0945e+00	1.3796e+01
4.0315e+00	3.2671e+00	1.5479e+01
4.4616e+00	3.5862e+00	1.7456e+01
4.9945e+00	4.1003e+00	1.9815e+01
5.6719e+00	4.8923e+00	2.2688e+01
6.5619e+00	6.1077e+00	2.6274e+01
7.7832e+00	8.0126e+00	3.0880e+01
9.5631e+00	1.1122e+01	3.6998e+01
1.2398e+01	1.6510e+01	4.5448e+01
