Material: glass / lightpath / BD6
Optical constants. BD6 Glass Datasheet (revision 2018-03-02)
Specs: {"n_absolute": false, "wavelength_vacuum": false, "density": "4.63 g/cm3", "Vickers_hardness": "142 kgf/mm2", "Youngs_modulus": "19.8 GPa", "thermal_expansion": [{"temperature_range": "25 100 °C", "coefficient": "22.5e-06 K-1"}], "thermal_dispersion": [{"type": "dn_rel/dT", "temperature_range": "0 40 °C", "wavelength": "10 µm", "value": "30.5e-6 K-1"}], "transition_temperature": "140 °C"}
wavelength (um)	n	k
3	2.6266	2.387E-07
4	2.6210	3.183E-07
5	2.6173	3.979E-07
6	2.6142	4.775E-07
7	2.6117	5.570E-07
8	2.6088	6.366E-07
9	2.6055	7.162E-07
10	2.6023	7.958E-07
11	2.5983	2.626E-06
12	2.5942	1.241E-05
13	2.5892	2.069E-05
14	2.5843	2.228E-05
