Material: organic / (C5H8O2)n - poly(methyl methacrylate) / Zhang-Tomson
Optical constants. X. Zhang, J. Qiu, X. Li, J. Zhao, L. Liu. Complex refractive indices measurements of polymers in visible and near-infrared bands, Appl. Opt. 59, 2337-2344 (2020)
Comments: Normal temperature and pressure. Manufacturer: Tomson, China.
Specs: {"n_absolute": true, "wavelength_vacuum": false}
wavelength (um)	n	k
0.40	1.50029	3.82E-07
0.41	1.49875	2.39E-07
0.42	1.49752	2.24E-07
0.43	1.49640	2.18E-07
0.44	1.49560	2.05E-07
0.45	1.49443	2.24E-07
0.46	1.49358	2.13E-07
0.47	1.49249	1.97E-07
0.48	1.49161	2.23E-07
0.49	1.49089	2.14E-07
0.50	1.49021	2.24E-07
0.51	1.48946	2.16E-07
0.52	1.48876	2.17E-07
0.53	1.48788	2.18E-07
0.54	1.48759	2.21E-07
0.55	1.48703	2.28E-07
0.56	1.48639	2.25E-07
0.57	1.48587	2.33E-07
0.58	1.48539	2.37E-07
0.59	1.48503	2.29E-07
0.60	1.48432	2.76E-07
0.61	1.48417	2.65E-07
0.62	1.48345	2.56E-07
0.63	1.48306	2.60E-07
0.64	1.48291	2.67E-07
0.65	1.48223	2.56E-07
0.66	1.48230	2.48E-07
0.67	1.48203	2.32E-07
0.68	1.48196	2.30E-07
0.69	1.48160	2.44E-07
0.70	1.48098	2.63E-07
0.71	1.48097	2.57E-07
0.72	1.48072	2.95E-07
0.73	1.48033	2.91E-07
0.74	1.47958	2.78E-07
0.75	1.47977	2.67E-07
0.76	1.47934	2.54E-07
0.77	1.47913	2.13E-07
0.78	1.47847	2.83E-07
0.79	1.47860	2.76E-07
0.80	1.47824	2.68E-07
0.81	1.47800	2.56E-07
0.82	1.47860	2.78E-07
0.83	1.47868	3.08E-07
0.84	1.47781	2.48E-07
0.85	1.47850	2.72E-07
0.86	1.47831	3.12E-07
0.87	1.47817	3.78E-07
0.88	1.47791	4.35E-07
0.89	1.47790	5.54E-07
0.90	1.47769	9.13E-07
0.91	1.47765	3.98E-07
0.92	1.47744	9.99E-07
0.93	1.47741	8.66E-07
0.94	1.47716	7.05E-07
0.95	1.47711	7.65E-07
0.96	1.47703	5.37E-07
0.97	1.47693	6.85E-07
0.98	1.47671	1.02E-06
0.99	1.47663	7.44E-07
1.00	1.47668	7.26E-07
1.01	1.47661	1.05E-06
1.02	1.47666	1.06E-06
1.03	1.47480	1.52E-06
1.04	1.47489	1.56E-06
1.05	1.47487	1.32E-06
1.06	1.47483	1.23E-06
1.07	1.47465	1.28E-06
1.08	1.47471	1.28E-06
1.09	1.47460	1.20E-06
1.10	1.47462	1.45E-06
1.11	1.47469	1.84E-06
1.12	1.47487	2.38E-06
1.13	1.47473	3.63E-06
1.14	1.47395	4.84E-06
1.15	1.47355	6.04E-06
1.16	1.47411	7.99E-06
1.17	1.47403	9.59E-06
1.18	1.47423	9.31E-06
1.19	1.47407	6.56E-06
1.20	1.47387	3.67E-06
1.21	1.47304	3.34E-06
1.22	1.47307	2.49E-06
1.23	1.47284	2.26E-06
1.24	1.47324	2.07E-06
1.25	1.47321	1.91E-06
1.26	1.47335	1.64E-06
1.27	1.47376	1.88E-06
1.28	1.47282	1.85E-06
1.29	1.47294	1.83E-06
1.30	1.47227	1.87E-06
1.31	1.47283	1.97E-06
1.32	1.47268	2.26E-06
1.33	1.47237	3.20E-06
1.34	1.47264	7.24E-06
1.35	1.47253	1.02E-05
1.36	1.47257	1.12E-05
1.37	1.47267	1.24E-05
1.38	1.47211	1.33E-05
1.39	1.47205	1.34E-05
1.40	1.47216	1.19E-05
1.41	1.47212	1.14E-05
1.42	1.47238	1.20E-05
1.43	1.47199	1.15E-05
1.44	1.47177	1.01E-05
1.45	1.47218	7.80E-06
1.46	1.47171	6.17E-06
1.47	1.47183	5.46E-06
1.48	1.47228	3.65E-06
1.49	1.47180	4.60E-06
1.50	1.47161	4.04E-06
1.51	1.47123	3.75E-06
1.52	1.47153	3.49E-06
1.53	1.47123	3.49E-06
1.54	1.47142	3.42E-06
1.55	1.47173	3.65E-06
1.56	1.47117	3.95E-06
1.57	1.47119	4.36E-06
1.58	1.47160	4.75E-06
1.59	1.47086	5.26E-06
1.60	1.47101	5.93E-06
1.61	1.47100	6.99E-06
1.62	1.47054	9.07E-06
1.63	1.47121	1.04E-05
1.64	1.47092	1.24E-05
1.65	1.47106	1.93E-05
1.66	1.47091	4.28E-05
1.67	1.47053	6.48E-05
1.68	1.47080	8.91E-05
1.69	1.47122	6.59E-05
1.70	1.47077	6.89E-05
1.71	1.47061	6.55E-05
1.72	1.47022	6.68E-05
1.73	1.47045	6.00E-05
1.74	1.47037	5.18E-05
1.75	1.47063	4.29E-05
1.76	1.46976	3.50E-05
1.77	1.46997	3.23E-05
1.78	1.46999	3.50E-05
1.79	1.46979	3.25E-05
1.80	1.47008	2.71E-05
1.81	1.47058	2.29E-05
1.82	1.47041	2.12E-05
1.83	1.47017	2.10E-05
1.84	1.46921	2.14E-05
1.85	1.46995	2.33E-05
1.86	1.46930	2.52E-05
1.87	1.46961	2.38E-05
1.88	1.46940	2.58E-05
1.89	1.46962	3.65E-05
1.90	1.46936	6.02E-05
1.91	1.46988	6.83E-05
1.92	1.46957	4.59E-05
1.93	1.46950	3.43E-05
1.94	1.46925	3.62E-05
1.95	1.46861	3.92E-05
1.96	1.46898	3.06E-05
1.97	1.46925	2.45E-05
1.98	1.46912	2.27E-05
1.99	1.46904	2.26E-05
2.00	1.46937	2.31E-05
