Material: organic / (C5H8O2)n - poly(methyl methacrylate) / Zhang-Mitsubishi
Optical constants. X. Zhang, J. Qiu, X. Li, J. Zhao, L. Liu. Complex refractive indices measurements of polymers in visible and near-infrared bands, Appl. Opt. 59, 2337-2344 (2020)
Comments: Normal temperature and pressure. Manufacturer: Mitsubishi, Japan.
Specs: {"n_absolute": true, "wavelength_vacuum": false}
wavelength (um)	n	k
0.40	1.50818	2.34E-07
0.41	1.50670	2.12E-07
0.42	1.50539	2.05E-07
0.43	1.50426	1.92E-07
0.44	1.50342	1.68E-07
0.45	1.50227	1.74E-07
0.46	1.50114	1.46E-07
0.47	1.50056	1.35E-07
0.48	1.49955	1.51E-07
0.49	1.49873	1.46E-07
0.50	1.49795	1.55E-07
0.51	1.49722	1.49E-07
0.52	1.49639	1.53E-07
0.53	1.49594	1.56E-07
0.54	1.49521	1.66E-07
0.55	1.49463	1.74E-07
0.56	1.49405	1.78E-07
0.57	1.49370	1.86E-07
0.58	1.49324	1.92E-07
0.59	1.49270	1.78E-07
0.60	1.49216	2.43E-07
0.61	1.49177	2.11E-07
0.62	1.49143	1.98E-07
0.63	1.49086	1.77E-07
0.64	1.49055	1.79E-07
0.65	1.49037	1.58E-07
0.66	1.48993	1.48E-07
0.67	1.48990	1.33E-07
0.68	1.48941	1.15E-07
0.69	1.48913	1.23E-07
0.70	1.48875	1.36E-07
0.71	1.48840	1.31E-07
0.72	1.48830	1.53E-07
0.73	1.48788	1.62E-07
0.74	1.48741	1.62E-07
0.75	1.48695	1.49E-07
0.76	1.48675	1.04E-07
0.77	1.48662	6.31E-08
0.78	1.48597	1.40E-07
0.79	1.48609	1.13E-07
0.80	1.48555	9.92E-08
0.81	1.48561	8.90E-08
0.82	1.48579	1.26E-07
0.83	1.48583	3.68E-08
0.84	1.48539	7.54E-08
0.85	1.48565	1.05E-07
0.86	1.48567	1.50E-07
0.87	1.48541	3.89E-08
0.88	1.48508	6.32E-08
0.89	1.48506	4.55E-07
0.90	1.48487	1.82E-07
0.91	1.48469	8.71E-07
0.92	1.48449	6.45E-07
0.93	1.48446	4.64E-07
0.94	1.48425	4.39E-07
0.95	1.48411	8.95E-08
0.96	1.48409	6.18E-07
0.97	1.48394	7.49E-08
0.98	1.48364	9.96E-08
0.99	1.48353	4.82E-07
1.00	1.48358	1.21E-07
1.01	1.48352	8.89E-07
1.02	1.48359	7.97E-07
1.03	1.48108	7.87E-07
1.04	1.48059	7.96E-07
1.05	1.48115	6.94E-07
1.06	1.48085	6.99E-07
1.07	1.48067	6.30E-07
1.08	1.48092	6.00E-07
1.09	1.48092	7.77E-07
1.10	1.48058	7.54E-07
1.11	1.48070	1.20E-06
1.12	1.48047	1.60E-06
1.13	1.48000	2.78E-06
1.14	1.47956	4.05E-06
1.15	1.47957	5.13E-06
1.16	1.47943	6.96E-06
1.17	1.48002	8.61E-06
1.18	1.48007	8.52E-06
1.19	1.47950	5.91E-06
1.20	1.47939	4.17E-06
1.21	1.47892	2.79E-06
1.22	1.47874	1.87E-06
1.23	1.47896	1.56E-06
1.24	1.47850	1.33E-06
1.25	1.47838	1.18E-06
1.26	1.47879	9.54E-07
1.27	1.47935	1.10E-06
1.28	1.47872	1.04E-06
1.29	1.47804	1.08E-06
1.30	1.47796	1.09E-06
1.31	1.47809	1.19E-06
1.32	1.47829	1.46E-06
1.33	1.47720	2.39E-06
1.34	1.47761	6.26E-06
1.35	1.47742	8.95E-06
1.36	1.47763	1.00E-05
1.37	1.47835	1.19E-05
1.38	1.47751	1.20E-05
1.39	1.47728	1.25E-05
1.40	1.47705	1.11E-05
1.41	1.47756	1.12E-05
1.42	1.47769	1.20E-05
1.43	1.47776	1.19E-05
1.44	1.47706	1.03E-05
1.45	1.47707	7.85E-06
1.46	1.47673	6.07E-06
1.47	1.47719	5.42E-06
1.48	1.47798	3.92E-06
1.49	1.47746	3.97E-06
1.50	1.47689	3.48E-06
1.51	1.47638	3.16E-06
1.52	1.47612	2.99E-06
1.53	1.47613	2.95E-06
1.54	1.47646	2.95E-06
1.55	1.47707	3.39E-06
1.56	1.47674	3.45E-06
1.57	1.47632	3.69E-06
1.58	1.47620	4.06E-06
1.59	1.47595	4.55E-06
1.60	1.47591	5.14E-06
1.61	1.47603	6.47E-06
1.62	1.47613	9.39E-06
1.63	1.47543	1.01E-05
1.64	1.47573	1.17E-05
1.65	1.47555	1.82E-05
1.66	1.47525	4.11E-05
1.67	1.47507	6.07E-05
1.68	1.47563	8.46E-05
1.69	1.47540	6.41E-05
1.70	1.47513	6.74E-05
1.71	1.47502	6.21E-05
1.72	1.47524	6.38E-05
1.73	1.47516	5.83E-05
1.74	1.47472	5.01E-05
1.75	1.47485	4.16E-05
1.76	1.47435	3.43E-05
1.77	1.47475	3.15E-05
1.78	1.47529	3.36E-05
1.79	1.47469	3.08E-05
1.80	1.47460	2.56E-05
1.81	1.47481	2.19E-05
1.82	1.47477	2.02E-05
1.83	1.47427	2.01E-05
1.84	1.47462	2.04E-05
1.85	1.47395	2.22E-05
1.86	1.47465	2.38E-05
1.87	1.47471	2.27E-05
1.88	1.47491	2.53E-05
1.89	1.47468	3.64E-05
1.90	1.47467	6.07E-05
1.91	1.47431	7.26E-05
1.92	1.47462	5.15E-05
1.93	1.47450	3.78E-05
1.94	1.47446	3.73E-05
1.95	1.47446	3.93E-05
1.96	1.47418	3.09E-05
1.97	1.47432	2.48E-05
1.98	1.47355	2.31E-05
1.99	1.47372	2.29E-05
2.00	1.47395	2.34E-05
