Material: main / InSb / Djurisic
Optical constants. A. B. Djurišić, E. H. Li, D. Rakić, M. L. Majewski. Modeling the optical properties of AlSb, GaSb, and InSb, Appl. Phys. A 70, 29-32 (2000)[Calculation script (Python)]
wavelength (um)	n	k
2.0664e-01	9.4950e-01	2.0537e+00
2.0751e-01	9.5454e-01	2.0624e+00
2.0839e-01	9.5963e-01	2.0713e+00
2.0927e-01	9.6478e-01	2.0802e+00
2.1016e-01	9.6998e-01	2.0892e+00
2.1106e-01	9.7525e-01	2.0984e+00
2.1197e-01	9.8058e-01	2.1076e+00
2.1288e-01	9.8597e-01	2.1170e+00
2.1380e-01	9.9143e-01	2.1264e+00
2.1473e-01	9.9695e-01	2.1360e+00
2.1567e-01	1.0025e+00	2.1457e+00
2.1662e-01	1.0082e+00	2.1556e+00
2.1757e-01	1.0139e+00	2.1655e+00
2.1854e-01	1.0197e+00	2.1756e+00
2.1951e-01	1.0256e+00	2.1859e+00
2.2049e-01	1.0316e+00	2.1963e+00
2.2148e-01	1.0376e+00	2.2068e+00
2.2248e-01	1.0437e+00	2.2175e+00
2.2349e-01	1.0499e+00	2.2283e+00
2.2450e-01	1.0562e+00	2.2393e+00
2.2553e-01	1.0626e+00	2.2505e+00
2.2656e-01	1.0691e+00	2.2618e+00
2.2761e-01	1.0757e+00	2.2733e+00
2.2866e-01	1.0824e+00	2.2851e+00
2.2973e-01	1.0891e+00	2.2970e+00
2.3080e-01	1.0960e+00	2.3091e+00
2.3189e-01	1.1030e+00	2.3214e+00
2.3298e-01	1.1101e+00	2.3339e+00
2.3409e-01	1.1174e+00	2.3466e+00
2.3520e-01	1.1248e+00	2.3596e+00
2.3633e-01	1.1323e+00	2.3729e+00
2.3747e-01	1.1399e+00	2.3863e+00
2.3862e-01	1.1477e+00	2.4001e+00
2.3978e-01	1.1557e+00	2.4141e+00
2.4095e-01	1.1638e+00	2.4284e+00
2.4213e-01	1.1721e+00	2.4430e+00
2.4332e-01	1.1805e+00	2.4579e+00
2.4453e-01	1.1892e+00	2.4731e+00
2.4575e-01	1.1981e+00	2.4887e+00
2.4698e-01	1.2072e+00	2.5046e+00
2.4822e-01	1.2165e+00	2.5209e+00
2.4947e-01	1.2261e+00	2.5376e+00
2.5074e-01	1.2359e+00	2.5547e+00
2.5202e-01	1.2460e+00	2.5722e+00
2.5331e-01	1.2564e+00	2.5902e+00
2.5462e-01	1.2672e+00	2.6086e+00
2.5594e-01	1.2783e+00	2.6275e+00
2.5728e-01	1.2897e+00	2.6469e+00
2.5863e-01	1.3016e+00	2.6668e+00
2.5999e-01	1.3140e+00	2.6873e+00
2.6136e-01	1.3268e+00	2.7084e+00
2.6276e-01	1.3401e+00	2.7301e+00
2.6416e-01	1.3540e+00	2.7525e+00
2.6559e-01	1.3685e+00	2.7755e+00
2.6702e-01	1.3837e+00	2.7992e+00
2.6848e-01	1.3996e+00	2.8237e+00
2.6994e-01	1.4164e+00	2.8489e+00
2.7143e-01	1.4340e+00	2.8749e+00
2.7293e-01	1.4526e+00	2.9017e+00
2.7445e-01	1.4724e+00	2.9294e+00
2.7598e-01	1.4933e+00	2.9579e+00
2.7753e-01	1.5155e+00	2.9874e+00
2.7910e-01	1.5392e+00	3.0177e+00
2.8069e-01	1.5645e+00	3.0490e+00
2.8230e-01	1.5917e+00	3.0813e+00
2.8392e-01	1.6208e+00	3.1144e+00
2.8557e-01	1.6522e+00	3.1484e+00
2.8723e-01	1.6860e+00	3.1833e+00
2.8891e-01	1.7226e+00	3.2189e+00
2.9061e-01	1.7622e+00	3.2552e+00
2.9233e-01	1.8052e+00	3.2919e+00
2.9407e-01	1.8519e+00	3.3289e+00
2.9584e-01	1.9027e+00	3.3659e+00
2.9762e-01	1.9580e+00	3.4025e+00
2.9943e-01	2.0182e+00	3.4382e+00
3.0126e-01	2.0836e+00	3.4725e+00
3.0311e-01	2.1546e+00	3.5046e+00
3.0498e-01	2.2314e+00	3.5337e+00
3.0688e-01	2.3142e+00	3.5587e+00
3.0880e-01	2.4029e+00	3.5785e+00
3.1074e-01	2.4972e+00	3.5918e+00
3.1271e-01	2.5966e+00	3.5971e+00
3.1470e-01	2.7000e+00	3.5931e+00
3.1672e-01	2.8062e+00	3.5785e+00
3.1877e-01	2.9132e+00	3.5523e+00
3.2084e-01	3.0189e+00	3.5140e+00
3.2294e-01	3.1209e+00	3.4634e+00
3.2507e-01	3.2168e+00	3.4011e+00
3.2723e-01	3.3043e+00	3.3285e+00
3.2941e-01	3.3814e+00	3.2472e+00
3.3162e-01	3.4468e+00	3.1597e+00
3.3387e-01	3.4998e+00	3.0684e+00
3.3614e-01	3.5405e+00	2.9758e+00
3.3845e-01	3.5692e+00	2.8842e+00
3.4079e-01	3.5872e+00	2.7955e+00
3.4316e-01	3.5956e+00	2.7111e+00
3.4556e-01	3.5961e+00	2.6322e+00
3.4800e-01	3.5900e+00	2.5594e+00
3.5047e-01	3.5787e+00	2.4931e+00
3.5297e-01	3.5637e+00	2.4333e+00
3.5552e-01	3.5459e+00	2.3797e+00
3.5810e-01	3.5265e+00	2.3323e+00
3.6071e-01	3.5061e+00	2.2904e+00
3.6337e-01	3.4855e+00	2.2538e+00
3.6607e-01	3.4651e+00	2.2219e+00
3.6880e-01	3.4454e+00	2.1943e+00
3.7158e-01	3.4266e+00	2.1705e+00
3.7440e-01	3.4091e+00	2.1502e+00
3.7726e-01	3.3929e+00	2.1329e+00
3.8017e-01	3.3782e+00	2.1183e+00
3.8312e-01	3.3650e+00	2.1061e+00
3.8612e-01	3.3534e+00	2.0959e+00
3.8916e-01	3.3435e+00	2.0876e+00
3.9226e-01	3.3351e+00	2.0808e+00
3.9540e-01	3.3282e+00	2.0753e+00
3.9859e-01	3.3229e+00	2.0710e+00
4.0184e-01	3.3191e+00	2.0677e+00
4.0514e-01	3.3167e+00	2.0653e+00
4.0849e-01	3.3157e+00	2.0636e+00
4.1190e-01	3.3160e+00	2.0625e+00
4.1537e-01	3.3175e+00	2.0619e+00
4.1889e-01	3.3203e+00	2.0618e+00
4.2248e-01	3.3241e+00	2.0621e+00
4.2613e-01	3.3290e+00	2.0627e+00
4.2984e-01	3.3349e+00	2.0637e+00
4.3362e-01	3.3418e+00	2.0649e+00
4.3746e-01	3.3495e+00	2.0665e+00
4.4137e-01	3.3580e+00	2.0685e+00
4.4536e-01	3.3673e+00	2.0708e+00
4.4941e-01	3.3773e+00	2.0737e+00
4.5355e-01	3.3881e+00	2.0772e+00
4.5775e-01	3.3995e+00	2.0814e+00
4.6204e-01	3.4118e+00	2.0867e+00
4.6641e-01	3.4250e+00	2.0932e+00
4.7086e-01	3.4394e+00	2.1013e+00
4.7539e-01	3.4553e+00	2.1114e+00
4.8002e-01	3.4733e+00	2.1238e+00
4.8473e-01	3.4943e+00	2.1389e+00
4.8954e-01	3.5196e+00	2.1569e+00
4.9445e-01	3.5510e+00	2.1777e+00
4.9945e-01	3.5909e+00	2.2004e+00
5.0456e-01	3.6418e+00	2.2225e+00
5.0977e-01	3.7059e+00	2.2399e+00
5.1509e-01	3.7831e+00	2.2461e+00
5.2052e-01	3.8693e+00	2.2339e+00
5.2607e-01	3.9558e+00	2.1989e+00
5.3174e-01	4.0315e+00	2.1425e+00
5.3753e-01	4.0884e+00	2.0725e+00
5.4345e-01	4.1245e+00	1.9989e+00
5.4951e-01	4.1431e+00	1.9297e+00
5.5569e-01	4.1492e+00	1.8692e+00
5.6202e-01	4.1478e+00	1.8186e+00
5.6850e-01	4.1422e+00	1.7777e+00
5.7512e-01	4.1348e+00	1.7458e+00
5.8191e-01	4.1269e+00	1.7221e+00
5.8885e-01	4.1197e+00	1.7067e+00
5.9596e-01	4.1142e+00	1.6999e+00
6.0325e-01	4.1121e+00	1.7028e+00
6.1071e-01	4.1164e+00	1.7165e+00
6.1837e-01	4.1316e+00	1.7420e+00
6.2621e-01	4.1652e+00	1.7782e+00
6.3426e-01	4.2266e+00	1.8194e+00
6.4252e-01	4.3239e+00	1.8520e+00
6.5100e-01	4.4564e+00	1.8535e+00
6.5970e-01	4.6051e+00	1.8024e+00
6.6864e-01	4.7372e+00	1.6946e+00
6.7783e-01	4.8263e+00	1.5501e+00
6.8727e-01	4.8670e+00	1.3975e+00
6.9697e-01	4.8702e+00	1.2567e+00
7.0696e-01	4.8501e+00	1.1354e+00
7.1723e-01	4.8180e+00	1.0333e+00
7.2781e-01	4.7805e+00	9.4759e-01
7.3871e-01	4.7416e+00	8.7482e-01
7.4993e-01	4.7030e+00	8.1213e-01
7.6151e-01	4.6656e+00	7.5730e-01
7.7344e-01	4.6297e+00	7.0869e-01
7.8576e-01	4.5954e+00	6.6507e-01
7.9847e-01	4.5626e+00	6.2555e-01
8.1161e-01	4.5312e+00	5.8947e-01
8.2518e-01	4.5012e+00	5.5631e-01
8.3921e-01	4.4725e+00	5.2567e-01
8.5373e-01	4.4449e+00	4.9724e-01
8.6876e-01	4.4185e+00	4.7077e-01
8.8433e-01	4.3931e+00	4.4603e-01
9.0047e-01	4.3686e+00	4.2286e-01
9.1721e-01	4.3451e+00	4.0111e-01
9.3458e-01	4.3225e+00	3.8063e-01
9.5262e-01	4.3008e+00	3.6132e-01
9.7137e-01	4.2799e+00	3.4308e-01
9.9088e-01	4.2597e+00	3.2581e-01
1.0112e+00	4.2404e+00	3.0944e-01
1.0323e+00	4.2217e+00	2.9391e-01
1.0544e+00	4.2038e+00	2.7914e-01
1.0774e+00	4.1866e+00	2.6509e-01
1.1015e+00	4.1700e+00	2.5170e-01
1.1266e+00	4.1541e+00	2.3895e-01
1.1529e+00	4.1388e+00	2.2681e-01
1.1805e+00	4.1242e+00	2.1529e-01
1.2095e+00	4.1101e+00	2.0443e-01
1.2398e+00	4.0967e+00	1.9453e-01
