Material: main / Ti / Rakic
Optical constants. A. D. Rakić, A. B. Djurišic, J. M. Elazar, and M. L. Majewski. Optical properties of metallic films for vertical-cavity optoelectronic devices, Appl. Opt. 37, 5271-5283 (1998)[Calculation script (Python)]
Comments: Fit of the experimental data from several sources to Brendel-Bormann (BB) model
wavelength (um)	n	k
2.0664e-01	1.4874e-01	1.0006e+00
2.0767e-01	1.4949e-01	1.0111e+00
2.0870e-01	1.5027e-01	1.0216e+00
2.0975e-01	1.5108e-01	1.0322e+00
2.1081e-01	1.5190e-01	1.0429e+00
2.1188e-01	1.5275e-01	1.0536e+00
2.1295e-01	1.5362e-01	1.0644e+00
2.1404e-01	1.5452e-01	1.0753e+00
2.1515e-01	1.5545e-01	1.0863e+00
2.1626e-01	1.5639e-01	1.0973e+00
2.1738e-01	1.5736e-01	1.1084e+00
2.1852e-01	1.5836e-01	1.1196e+00
2.1967e-01	1.5939e-01	1.1309e+00
2.2083e-01	1.6043e-01	1.1423e+00
2.2200e-01	1.6151e-01	1.1538e+00
2.2318e-01	1.6261e-01	1.1654e+00
2.2438e-01	1.6374e-01	1.1770e+00
2.2559e-01	1.6490e-01	1.1888e+00
2.2681e-01	1.6608e-01	1.2007e+00
2.2805e-01	1.6730e-01	1.2126e+00
2.2930e-01	1.6854e-01	1.2247e+00
2.3057e-01	1.6981e-01	1.2369e+00
2.3184e-01	1.7111e-01	1.2492e+00
2.3314e-01	1.7244e-01	1.2616e+00
2.3444e-01	1.7381e-01	1.2742e+00
2.3577e-01	1.7520e-01	1.2869e+00
2.3710e-01	1.7663e-01	1.2997e+00
2.3845e-01	1.7809e-01	1.3126e+00
2.3982e-01	1.7959e-01	1.3257e+00
2.4120e-01	1.8112e-01	1.3389e+00
2.4260e-01	1.8268e-01	1.3523e+00
2.4402e-01	1.8428e-01	1.3658e+00
2.4545e-01	1.8592e-01	1.3795e+00
2.4690e-01	1.8760e-01	1.3933e+00
2.4837e-01	1.8932e-01	1.4073e+00
2.4985e-01	1.9108e-01	1.4214e+00
2.5135e-01	1.9288e-01	1.4358e+00
2.5287e-01	1.9473e-01	1.4503e+00
2.5441e-01	1.9662e-01	1.4650e+00
2.5597e-01	1.9856e-01	1.4800e+00
2.5755e-01	2.0055e-01	1.4951e+00
2.5914e-01	2.0260e-01	1.5104e+00
2.6076e-01	2.0470e-01	1.5260e+00
2.6239e-01	2.0685e-01	1.5418e+00
2.6405e-01	2.0907e-01	1.5578e+00
2.6573e-01	2.1136e-01	1.5741e+00
2.6743e-01	2.1372e-01	1.5906e+00
2.6915e-01	2.1615e-01	1.6075e+00
2.7089e-01	2.1867e-01	1.6245e+00
2.7266e-01	2.2127e-01	1.6419e+00
2.7445e-01	2.2398e-01	1.6596e+00
2.7626e-01	2.2678e-01	1.6777e+00
2.7810e-01	2.2971e-01	1.6960e+00
2.7996e-01	2.3276e-01	1.7147e+00
2.8185e-01	2.3595e-01	1.7338e+00
2.8376e-01	2.3930e-01	1.7532e+00
2.8570e-01	2.4281e-01	1.7730e+00
2.8766e-01	2.4652e-01	1.7933e+00
2.8966e-01	2.5043e-01	1.8139e+00
2.9168e-01	2.5457e-01	1.8350e+00
2.9372e-01	2.5896e-01	1.8566e+00
2.9580e-01	2.6364e-01	1.8786e+00
2.9791e-01	2.6862e-01	1.9010e+00
3.0005e-01	2.7394e-01	1.9240e+00
3.0222e-01	2.7964e-01	1.9475e+00
3.0442e-01	2.8575e-01	1.9714e+00
3.0665e-01	2.9230e-01	1.9959e+00
3.0891e-01	2.9935e-01	2.0209e+00
3.1121e-01	3.0692e-01	2.0464e+00
3.1354e-01	3.1508e-01	2.0724e+00
3.1591e-01	3.2385e-01	2.0989e+00
3.1832e-01	3.3330e-01	2.1258e+00
3.2076e-01	3.4347e-01	2.1533e+00
3.2324e-01	3.5441e-01	2.1812e+00
3.2576e-01	3.6617e-01	2.2095e+00
3.2831e-01	3.7880e-01	2.2383e+00
3.3091e-01	3.9236e-01	2.2673e+00
3.3355e-01	4.0687e-01	2.2967e+00
3.3623e-01	4.2240e-01	2.3264e+00
3.3896e-01	4.3899e-01	2.3563e+00
3.4173e-01	4.5667e-01	2.3863e+00
3.4454e-01	4.7547e-01	2.4165e+00
3.4741e-01	4.9544e-01	2.4467e+00
3.5032e-01	5.1660e-01	2.4768e+00
3.5328e-01	5.3896e-01	2.5068e+00
3.5629e-01	5.6254e-01	2.5366e+00
3.5935e-01	5.8735e-01	2.5662e+00
3.6246e-01	6.1338e-01	2.5953e+00
3.6563e-01	6.4063e-01	2.6241e+00
3.6886e-01	6.6907e-01	2.6523e+00
3.7214e-01	6.9870e-01	2.6798e+00
3.7548e-01	7.2946e-01	2.7067e+00
3.7888e-01	7.6132e-01	2.7327e+00
3.8235e-01	7.9423e-01	2.7579e+00
3.8588e-01	8.2813e-01	2.7821e+00
3.8947e-01	8.6295e-01	2.8053e+00
3.9313e-01	8.9861e-01	2.8274e+00
3.9686e-01	9.3503e-01	2.8483e+00
4.0066e-01	9.7212e-01	2.8680e+00
4.0454e-01	1.0098e+00	2.8864e+00
4.0849e-01	1.0479e+00	2.9035e+00
4.1252e-01	1.0864e+00	2.9192e+00
4.1663e-01	1.1251e+00	2.9336e+00
4.2082e-01	1.1640e+00	2.9467e+00
4.2510e-01	1.2029e+00	2.9583e+00
4.2947e-01	1.2416e+00	2.9687e+00
4.3392e-01	1.2801e+00	2.9776e+00
4.3847e-01	1.3183e+00	2.9853e+00
4.4312e-01	1.3560e+00	2.9918e+00
4.4786e-01	1.3931e+00	2.9971e+00
4.5271e-01	1.4295e+00	3.0013e+00
4.5767e-01	1.4652e+00	3.0045e+00
4.6273e-01	1.4999e+00	3.0067e+00
4.6791e-01	1.5337e+00	3.0082e+00
4.7320e-01	1.5664e+00	3.0090e+00
4.7862e-01	1.5980e+00	3.0093e+00
4.8416e-01	1.6284e+00	3.0091e+00
4.8983e-01	1.6576e+00	3.0087e+00
4.9564e-01	1.6856e+00	3.0081e+00
5.0158e-01	1.7124e+00	3.0076e+00
5.0767e-01	1.7379e+00	3.0073e+00
5.1391e-01	1.7623e+00	3.0074e+00
5.2030e-01	1.7855e+00	3.0079e+00
5.2686e-01	1.8075e+00	3.0091e+00
5.3358e-01	1.8286e+00	3.0112e+00
5.4048e-01	1.8488e+00	3.0141e+00
5.4756e-01	1.8681e+00	3.0181e+00
5.5482e-01	1.8867e+00	3.0234e+00
5.6228e-01	1.9047e+00	3.0299e+00
5.6994e-01	1.9224e+00	3.0378e+00
5.7782e-01	1.9397e+00	3.0471e+00
5.8591e-01	1.9570e+00	3.0580e+00
5.9424e-01	1.9743e+00	3.0704e+00
6.0281e-01	1.9919e+00	3.0844e+00
6.1162e-01	2.0098e+00	3.0999e+00
6.2070e-01	2.0283e+00	3.1170e+00
6.3005e-01	2.0475e+00	3.1356e+00
6.3969e-01	2.0675e+00	3.1556e+00
6.4963e-01	2.0886e+00	3.1771e+00
6.5988e-01	2.1107e+00	3.1999e+00
6.7046e-01	2.1341e+00	3.2239e+00
6.8138e-01	2.1588e+00	3.2491e+00
6.9267e-01	2.1850e+00	3.2753e+00
7.0433e-01	2.2126e+00	3.3024e+00
7.1640e-01	2.2418e+00	3.3304e+00
7.2889e-01	2.2726e+00	3.3591e+00
7.4182e-01	2.3050e+00	3.3885e+00
7.5521e-01	2.3390e+00	3.4183e+00
7.6910e-01	2.3747e+00	3.4486e+00
7.8351e-01	2.4120e+00	3.4792e+00
7.9847e-01	2.4509e+00	3.5101e+00
8.1402e-01	2.4915e+00	3.5412e+00
8.3018e-01	2.5335e+00	3.5724e+00
8.4699e-01	2.5771e+00	3.6037e+00
8.6450e-01	2.6222e+00	3.6351e+00
8.8275e-01	2.6687e+00	3.6664e+00
9.0179e-01	2.7166e+00	3.6978e+00
9.2166e-01	2.7657e+00	3.7291e+00
9.4243e-01	2.8162e+00	3.7605e+00
9.6416e-01	2.8678e+00	3.7919e+00
9.8691e-01	2.9206e+00	3.8233e+00
1.0108e+00	2.9745e+00	3.8548e+00
1.0358e+00	3.0294e+00	3.8865e+00
1.0621e+00	3.0853e+00	3.9185e+00
1.0898e+00	3.1421e+00	3.9507e+00
1.1190e+00	3.1997e+00	3.9834e+00
1.1497e+00	3.2581e+00	4.0166e+00
1.1822e+00	3.3172e+00	4.0506e+00
1.2166e+00	3.3770e+00	4.0854e+00
1.2531e+00	3.4373e+00	4.1212e+00
1.2918e+00	3.4982e+00	4.1583e+00
1.3329e+00	3.5594e+00	4.1970e+00
1.3768e+00	3.6209e+00	4.2375e+00
1.4237e+00	3.6827e+00	4.2801e+00
1.4739e+00	3.7445e+00	4.3253e+00
1.5277e+00	3.8063e+00	4.3736e+00
1.5857e+00	3.8678e+00	4.4254e+00
1.6482e+00	3.9288e+00	4.4816e+00
1.7158e+00	3.9891e+00	4.5428e+00
1.7892e+00	4.0484e+00	4.6101e+00
1.8692e+00	4.1063e+00	4.6847e+00
1.9566e+00	4.1624e+00	4.7680e+00
2.0527e+00	4.2162e+00	4.8620e+00
2.1586e+00	4.2671e+00	4.9689e+00
2.2761e+00	4.3145e+00	5.0919e+00
2.4071e+00	4.3574e+00	5.2348e+00
2.5541e+00	4.3954e+00	5.4028e+00
2.7203e+00	4.4275e+00	5.6024e+00
2.9095e+00	4.4533e+00	5.8425e+00
3.1271e+00	4.4730e+00	6.1351e+00
3.3798e+00	4.4879e+00	6.4961e+00
3.6770e+00	4.5013e+00	6.9468e+00
4.0315e+00	4.5205e+00	7.5163e+00
4.4616e+00	4.5587e+00	8.2441e+00
4.9945e+00	4.6396e+00	9.1843e+00
5.6719e+00	4.8036e+00	1.0413e+01
6.5619e+00	5.1208e+00	1.2043e+01
7.7832e+00	5.7182e+00	1.4246e+01
9.5631e+00	6.8437e+00	1.7304e+01
1.2398e+01	9.0329e+00	2.1709e+01
